gem5 Simulator System.  http://gem5.org
gem5 is copyrighted software; use the --copyright option for details.

gem5 compiled Nov 27 2016 12:46:38
gem5 started Dec  7 2016 03:19:48
gem5 executing on big.cerc.utexas.edu, pid 15817
command line: build/X86/gem5.fast -r --outdir=output/multiCore/cacheUpdate/xalancbmk configs/example/multiCore.py --restore-simpoint-checkpoint -r 1 --checkpoint-dir=output/multiCore/xalancbmkprofile/ '--cmd=../../../big/rrip/cpu2006/benchspec/CPU2006/483.xalancbmk/exe/Xalan_base.amd64-m64-gcc42-nn;../../../big/rrip/cpu2006/benchspec/CPU2006/483.xalancbmk/exe/Xalan_base.amd64-m64-gcc42-nn;../../../big/rrip/cpu2006/benchspec/CPU2006/483.xalancbmk/exe/Xalan_base.amd64-m64-gcc42-nn;../../../big/rrip/cpu2006/benchspec/CPU2006/483.xalancbmk/exe/Xalan_base.amd64-m64-gcc42-nn' '--options=-v ../../../big/rrip/cpu2006/benchspec/CPU2006/483.xalancbmk/data/test/input/test.xml ../../../big/rrip/cpu2006/benchspec/CPU2006/483.xalancbmk/data/test/input/xalanc.xsl;-v ../../../big/rrip/cpu2006/benchspec/CPU2006/483.xalancbmk/data/test/input/test.xml ../../../big/rrip/cpu2006/benchspec/CPU2006/483.xalancbmk/data/test/input/xalanc.xsl;-v ../../../big/rrip/cpu2006/benchspec/CPU2006/483.xalancbmk/data/test/input/test.xml ../../../big/rrip/cpu2006/benchspec/CPU2006/483.xalancbmk/data/test/input/xalanc.xsl;-v ../../../big/rrip/cpu2006/benchspec/CPU2006/483.xalancbmk/data/test/input/test.xml ../../../big/rrip/cpu2006/benchspec/CPU2006/483.xalancbmk/data/test/input/xalanc.xsl' '--output=output/singleCore-1gb/xalancbmk/test.out1;output/singleCore-1gb/xalancbmk/test.out2;output/singleCore-1gb/xalancbmk/test.out3;output/singleCore-1gb/xalancbmk/test.out4' --cpu-type=minor --caches --l2cache --num-cpus=4 --mem-size=4GB

Resuming from output/multiCore/xalancbmkprofile/cpt.simpoint_00_inst_99000000_weight_1.000000_interval_100000000_warmup_1000000
Resuming from SimPoint #0, start_inst:99000000, weight:1.000000, interval:100000000, warmup:1000000
Global frequency set at 1000000000000 ticks per second
warn: DRAM device capacity (8192 Mbytes) does not match the address range assigned (4096 Mbytes)
0: system.remote_gdb.listener: listening for remote gdb on port 7040
0: system.remote_gdb.listener: listening for remote gdb on port 7041
0: system.remote_gdb.listener: listening for remote gdb on port 7042
0: system.remote_gdb.listener: listening for remote gdb on port 7043
warn: optional parameter system.cpu0.workload:M5_pid not present
warn: optional parameter system.cpu1.workload:M5_pid not present
warn: optional parameter system.cpu2.workload:M5_pid not present
warn: optional parameter system.cpu3.workload:M5_pid not present
Switch at curTick count:10000
info: Entering event queue @ 110604613000.  Starting simulation...
Switched CPUS @ tick 110604623000
switching cpus
info: Entering event queue @ 110604623000.  Starting simulation...
Warmed up! Dumping and resetting stats!
info: Entering event queue @ 114521120721.  Starting simulation...
info: Increasing stack size by one page.
info: Increasing stack size by one page.
info: Increasing stack size by one page.
info: Increasing stack size by one page.
info: Increasing stack size by one page.
info: Increasing stack size by one page.
info: Increasing stack size by one page.
info: Increasing stack size by one page.
info: Increasing stack size by one page.
info: Increasing stack size by one page.
info: Increasing stack size by one page.
info: Increasing stack size by one page.
info: Increasing stack size by one page.
info: Increasing stack size by one page.
info: Increasing stack size by one page.
info: Increasing stack size by one page.
info: Increasing stack size by one page.
info: Increasing stack size by one page.
info: Increasing stack size by one page.
info: Increasing stack size by one page.
info: Increasing stack size by one page.
info: Increasing stack size by one page.
info: Increasing stack size by one page.
info: Increasing stack size by one page.
info: Increasing stack size by one page.
info: Increasing stack size by one page.
info: Increasing stack size by one page.
info: Increasing stack size by one page.
info: Increasing stack size by one page.
info: Increasing stack size by one page.
info: Increasing stack size by one page.
info: Increasing stack size by one page.
info: Increasing stack size by one page.
info: Increasing stack size by one page.
info: Increasing stack size by one page.
info: Increasing stack size by one page.
info: Increasing stack size by one page.
info: Increasing stack size by one page.
info: Increasing stack size by one page.
info: Increasing stack size by one page.
info: Increasing stack size by one page.
info: Increasing stack size by one page.
info: Increasing stack size by one page.
info: Increasing stack size by one page.
info: Increasing stack size by one page.
info: Increasing stack size by one page.
info: Increasing stack size by one page.
info: Increasing stack size by one page.
info: Increasing stack size by one page.
info: Increasing stack size by one page.
info: Increasing stack size by one page.
info: Increasing stack size by one page.
info: Increasing stack size by one page.
info: Increasing stack size by one page.
info: Increasing stack size by one page.
info: Increasing stack size by one page.
info: Increasing stack size by one page.
info: Increasing stack size by one page.
info: Increasing stack size by one page.
info: Increasing stack size by one page.
info: Increasing stack size by one page.
info: Increasing stack size by one page.
info: Increasing stack size by one page.
info: Increasing stack size by one page.
info: Increasing stack size by one page.
info: Increasing stack size by one page.
info: Increasing stack size by one page.
info: Increasing stack size by one page.
info: Increasing stack size by one page.
info: Increasing stack size by one page.
info: Increasing stack size by one page.
info: Increasing stack size by one page.
info: Increasing stack size by one page.
info: Increasing stack size by one page.
info: Increasing stack size by one page.
info: Increasing stack size by one page.
info: Increasing stack size by one page.
info: Increasing stack size by one page.
info: Increasing stack size by one page.
info: Increasing stack size by one page.
info: Increasing stack size by one page.
info: Increasing stack size by one page.
info: Increasing stack size by one page.
info: Increasing stack size by one page.
info: Increasing stack size by one page.
info: Increasing stack size by one page.
info: Increasing stack size by one page.
info: Increasing stack size by one page.
info: Increasing stack size by one page.
info: Increasing stack size by one page.
info: Increasing stack size by one page.
info: Increasing stack size by one page.
info: Increasing stack size by one page.
info: Increasing stack size by one page.
info: Increasing stack size by one page.
info: Increasing stack size by one page.
info: Increasing stack size by one page.
info: Increasing stack size by one page.
info: Increasing stack size by one page.
info: Increasing stack size by one page.
info: Increasing stack size by one page.
info: Increasing stack size by one page.
info: Increasing stack size by one page.
info: Increasing stack size by one page.
info: Increasing stack size by one page.
info: Increasing stack size by one page.
info: Increasing stack size by one page.
info: Increasing stack size by one page.
info: Increasing stack size by one page.
info: Increasing stack size by one page.
info: Increasing stack size by one page.
info: Increasing stack size by one page.
info: Increasing stack size by one page.
info: Increasing stack size by one page.
info: Increasing stack size by one page.
info: Increasing stack size by one page.
info: Increasing stack size by one page.
info: Increasing stack size by one page.
info: Increasing stack size by one page.
info: Increasing stack size by one page.
info: Increasing stack size by one page.
info: Increasing stack size by one page.
info: Increasing stack size by one page.
info: Increasing stack size by one page.
info: Increasing stack size by one page.
info: Increasing stack size by one page.
info: Increasing stack size by one page.
info: Increasing stack size by one page.
info: Increasing stack size by one page.
info: Increasing stack size by one page.
info: Increasing stack size by one page.
info: Increasing stack size by one page.
info: Increasing stack size by one page.
info: Increasing stack size by one page.
info: Increasing stack size by one page.
info: Increasing stack size by one page.
info: Increasing stack size by one page.
info: Increasing stack size by one page.
info: Increasing stack size by one page.
info: Increasing stack size by one page.
info: Increasing stack size by one page.
info: Increasing stack size by one page.
info: Increasing stack size by one page.
info: Increasing stack size by one page.
info: Increasing stack size by one page.
info: Increasing stack size by one page.
info: Increasing stack size by one page.
info: Increasing stack size by one page.
info: Increasing stack size by one page.
info: Increasing stack size by one page.
info: Increasing stack size by one page.
info: Increasing stack size by one page.
info: Increasing stack size by one page.
info: Increasing stack size by one page.
info: Increasing stack size by one page.
info: Increasing stack size by one page.
info: Increasing stack size by one page.
info: Increasing stack size by one page.
info: Increasing stack size by one page.
info: Increasing stack size by one page.
info: Increasing stack size by one page.
info: Increasing stack size by one page.
info: Increasing stack size by one page.
info: Increasing stack size by one page.
info: Increasing stack size by one page.
info: Increasing stack size by one page.
info: Increasing stack size by one page.
info: Increasing stack size by one page.
info: Increasing stack size by one page.
info: Increasing stack size by one page.
info: Increasing stack size by one page.
info: Increasing stack size by one page.
info: Increasing stack size by one page.
info: Increasing stack size by one page.
info: Increasing stack size by one page.
info: Increasing stack size by one page.
info: Increasing stack size by one page.
info: Increasing stack size by one page.
info: Increasing stack size by one page.
info: Increasing stack size by one page.
info: Increasing stack size by one page.
info: Increasing stack size by one page.
info: Increasing stack size by one page.
info: Increasing stack size by one page.
info: Increasing stack size by one page.
info: Increasing stack size by one page.
info: Increasing stack size by one page.
info: Increasing stack size by one page.
info: Increasing stack size by one page.
info: Increasing stack size by one page.
info: Increasing stack size by one page.
info: Increasing stack size by one page.
info: Increasing stack size by one page.
info: Increasing stack size by one page.
info: Increasing stack size by one page.
info: Increasing stack size by one page.
info: Increasing stack size by one page.
info: Increasing stack size by one page.
info: Increasing stack size by one page.
info: Increasing stack size by one page.
info: Increasing stack size by one page.
info: Increasing stack size by one page.
info: Increasing stack size by one page.
info: Increasing stack size by one page.
info: Increasing stack size by one page.
info: Increasing stack size by one page.
info: Increasing stack size by one page.
info: Increasing stack size by one page.
info: Increasing stack size by one page.
info: Increasing stack size by one page.
info: Increasing stack size by one page.
info: Increasing stack size by one page.
info: Increasing stack size by one page.
info: Increasing stack size by one page.
info: Increasing stack size by one page.
info: Increasing stack size by one page.
Done running SimPoint!
