
---------- Begin Simulation Statistics ----------
sim_seconds                                  0.003917                       # Number of seconds simulated
sim_ticks                                  3916507721                       # Number of ticks simulated
final_tick                               114521120721                       # Number of ticks from beginning of simulation (restored from checkpoints and never reset)
sim_freq                                 1000000000000                       # Frequency of simulated ticks
host_inst_rate                                  52143                       # Simulator instruction rate (inst/s)
host_op_rate                                   106022                       # Simulator op (including micro ops) rate (op/s)
host_tick_rate                               51053998                       # Simulator tick rate (ticks/s)
host_mem_usage                                4599300                       # Number of bytes of host memory used
host_seconds                                    76.71                       # Real time elapsed on the host
sim_insts                                     4000008                       # Number of instructions simulated
sim_ops                                       8133249                       # Number of ops (including micro ops) simulated
system.voltage_domain.voltage                       1                       # Voltage in Volts
system.clk_domain.clock                          1000                       # Clock period in ticks
system.mem_ctrls.pwrStateResidencyTicks::UNDEFINED 114521120721                       # Cumulative time (in ticks) in various power states
system.mem_ctrls.bytes_read::cpu0.inst             64                       # Number of bytes read from this memory
system.mem_ctrls.bytes_read::cpu0.data            128                       # Number of bytes read from this memory
system.mem_ctrls.bytes_read::cpu1.inst             64                       # Number of bytes read from this memory
system.mem_ctrls.bytes_read::cpu1.data            128                       # Number of bytes read from this memory
system.mem_ctrls.bytes_read::cpu2.inst             64                       # Number of bytes read from this memory
system.mem_ctrls.bytes_read::cpu2.data            128                       # Number of bytes read from this memory
system.mem_ctrls.bytes_read::cpu3.inst             64                       # Number of bytes read from this memory
system.mem_ctrls.bytes_read::cpu3.data            128                       # Number of bytes read from this memory
system.mem_ctrls.bytes_read::switch_cpus0.inst        49664                       # Number of bytes read from this memory
system.mem_ctrls.bytes_read::switch_cpus0.data       151424                       # Number of bytes read from this memory
system.mem_ctrls.bytes_read::switch_cpus1.inst        51520                       # Number of bytes read from this memory
system.mem_ctrls.bytes_read::switch_cpus1.data       149696                       # Number of bytes read from this memory
system.mem_ctrls.bytes_read::switch_cpus2.inst        48704                       # Number of bytes read from this memory
system.mem_ctrls.bytes_read::switch_cpus2.data       153664                       # Number of bytes read from this memory
system.mem_ctrls.bytes_read::switch_cpus3.inst        52672                       # Number of bytes read from this memory
system.mem_ctrls.bytes_read::switch_cpus3.data       147136                       # Number of bytes read from this memory
system.mem_ctrls.bytes_read::total             805248                       # Number of bytes read from this memory
system.mem_ctrls.bytes_inst_read::cpu0.inst           64                       # Number of instructions bytes read from this memory
system.mem_ctrls.bytes_inst_read::cpu1.inst           64                       # Number of instructions bytes read from this memory
system.mem_ctrls.bytes_inst_read::cpu2.inst           64                       # Number of instructions bytes read from this memory
system.mem_ctrls.bytes_inst_read::cpu3.inst           64                       # Number of instructions bytes read from this memory
system.mem_ctrls.bytes_inst_read::switch_cpus0.inst        49664                       # Number of instructions bytes read from this memory
system.mem_ctrls.bytes_inst_read::switch_cpus1.inst        51520                       # Number of instructions bytes read from this memory
system.mem_ctrls.bytes_inst_read::switch_cpus2.inst        48704                       # Number of instructions bytes read from this memory
system.mem_ctrls.bytes_inst_read::switch_cpus3.inst        52672                       # Number of instructions bytes read from this memory
system.mem_ctrls.bytes_inst_read::total        202816                       # Number of instructions bytes read from this memory
system.mem_ctrls.bytes_written::writebacks        28224                       # Number of bytes written to this memory
system.mem_ctrls.bytes_written::total           28224                       # Number of bytes written to this memory
system.mem_ctrls.num_reads::cpu0.inst               1                       # Number of read requests responded to by this memory
system.mem_ctrls.num_reads::cpu0.data               2                       # Number of read requests responded to by this memory
system.mem_ctrls.num_reads::cpu1.inst               1                       # Number of read requests responded to by this memory
system.mem_ctrls.num_reads::cpu1.data               2                       # Number of read requests responded to by this memory
system.mem_ctrls.num_reads::cpu2.inst               1                       # Number of read requests responded to by this memory
system.mem_ctrls.num_reads::cpu2.data               2                       # Number of read requests responded to by this memory
system.mem_ctrls.num_reads::cpu3.inst               1                       # Number of read requests responded to by this memory
system.mem_ctrls.num_reads::cpu3.data               2                       # Number of read requests responded to by this memory
system.mem_ctrls.num_reads::switch_cpus0.inst          776                       # Number of read requests responded to by this memory
system.mem_ctrls.num_reads::switch_cpus0.data         2366                       # Number of read requests responded to by this memory
system.mem_ctrls.num_reads::switch_cpus1.inst          805                       # Number of read requests responded to by this memory
system.mem_ctrls.num_reads::switch_cpus1.data         2339                       # Number of read requests responded to by this memory
system.mem_ctrls.num_reads::switch_cpus2.inst          761                       # Number of read requests responded to by this memory
system.mem_ctrls.num_reads::switch_cpus2.data         2401                       # Number of read requests responded to by this memory
system.mem_ctrls.num_reads::switch_cpus3.inst          823                       # Number of read requests responded to by this memory
system.mem_ctrls.num_reads::switch_cpus3.data         2299                       # Number of read requests responded to by this memory
system.mem_ctrls.num_reads::total               12582                       # Number of read requests responded to by this memory
system.mem_ctrls.num_writes::writebacks           441                       # Number of write requests responded to by this memory
system.mem_ctrls.num_writes::total                441                       # Number of write requests responded to by this memory
system.mem_ctrls.bw_read::cpu0.inst             16341                       # Total read bandwidth from this memory (bytes/s)
system.mem_ctrls.bw_read::cpu0.data             32682                       # Total read bandwidth from this memory (bytes/s)
system.mem_ctrls.bw_read::cpu1.inst             16341                       # Total read bandwidth from this memory (bytes/s)
system.mem_ctrls.bw_read::cpu1.data             32682                       # Total read bandwidth from this memory (bytes/s)
system.mem_ctrls.bw_read::cpu2.inst             16341                       # Total read bandwidth from this memory (bytes/s)
system.mem_ctrls.bw_read::cpu2.data             32682                       # Total read bandwidth from this memory (bytes/s)
system.mem_ctrls.bw_read::cpu3.inst             16341                       # Total read bandwidth from this memory (bytes/s)
system.mem_ctrls.bw_read::cpu3.data             32682                       # Total read bandwidth from this memory (bytes/s)
system.mem_ctrls.bw_read::switch_cpus0.inst     12680685                       # Total read bandwidth from this memory (bytes/s)
system.mem_ctrls.bw_read::switch_cpus0.data     38663016                       # Total read bandwidth from this memory (bytes/s)
system.mem_ctrls.bw_read::switch_cpus1.inst     13154576                       # Total read bandwidth from this memory (bytes/s)
system.mem_ctrls.bw_read::switch_cpus1.data     38221806                       # Total read bandwidth from this memory (bytes/s)
system.mem_ctrls.bw_read::switch_cpus2.inst     12435568                       # Total read bandwidth from this memory (bytes/s)
system.mem_ctrls.bw_read::switch_cpus2.data     39234954                       # Total read bandwidth from this memory (bytes/s)
system.mem_ctrls.bw_read::switch_cpus3.inst     13448716                       # Total read bandwidth from this memory (bytes/s)
system.mem_ctrls.bw_read::switch_cpus3.data     37568163                       # Total read bandwidth from this memory (bytes/s)
system.mem_ctrls.bw_read::total             205603578                       # Total read bandwidth from this memory (bytes/s)
system.mem_ctrls.bw_inst_read::cpu0.inst        16341                       # Instruction read bandwidth from this memory (bytes/s)
system.mem_ctrls.bw_inst_read::cpu1.inst        16341                       # Instruction read bandwidth from this memory (bytes/s)
system.mem_ctrls.bw_inst_read::cpu2.inst        16341                       # Instruction read bandwidth from this memory (bytes/s)
system.mem_ctrls.bw_inst_read::cpu3.inst        16341                       # Instruction read bandwidth from this memory (bytes/s)
system.mem_ctrls.bw_inst_read::switch_cpus0.inst     12680685                       # Instruction read bandwidth from this memory (bytes/s)
system.mem_ctrls.bw_inst_read::switch_cpus1.inst     13154576                       # Instruction read bandwidth from this memory (bytes/s)
system.mem_ctrls.bw_inst_read::switch_cpus2.inst     12435568                       # Instruction read bandwidth from this memory (bytes/s)
system.mem_ctrls.bw_inst_read::switch_cpus3.inst     13448716                       # Instruction read bandwidth from this memory (bytes/s)
system.mem_ctrls.bw_inst_read::total         51784910                       # Instruction read bandwidth from this memory (bytes/s)
system.mem_ctrls.bw_write::writebacks         7206420                       # Write bandwidth from this memory (bytes/s)
system.mem_ctrls.bw_write::total              7206420                       # Write bandwidth from this memory (bytes/s)
system.mem_ctrls.bw_total::writebacks         7206420                       # Total bandwidth to/from this memory (bytes/s)
system.mem_ctrls.bw_total::cpu0.inst            16341                       # Total bandwidth to/from this memory (bytes/s)
system.mem_ctrls.bw_total::cpu0.data            32682                       # Total bandwidth to/from this memory (bytes/s)
system.mem_ctrls.bw_total::cpu1.inst            16341                       # Total bandwidth to/from this memory (bytes/s)
system.mem_ctrls.bw_total::cpu1.data            32682                       # Total bandwidth to/from this memory (bytes/s)
system.mem_ctrls.bw_total::cpu2.inst            16341                       # Total bandwidth to/from this memory (bytes/s)
system.mem_ctrls.bw_total::cpu2.data            32682                       # Total bandwidth to/from this memory (bytes/s)
system.mem_ctrls.bw_total::cpu3.inst            16341                       # Total bandwidth to/from this memory (bytes/s)
system.mem_ctrls.bw_total::cpu3.data            32682                       # Total bandwidth to/from this memory (bytes/s)
system.mem_ctrls.bw_total::switch_cpus0.inst     12680685                       # Total bandwidth to/from this memory (bytes/s)
system.mem_ctrls.bw_total::switch_cpus0.data     38663016                       # Total bandwidth to/from this memory (bytes/s)
system.mem_ctrls.bw_total::switch_cpus1.inst     13154576                       # Total bandwidth to/from this memory (bytes/s)
system.mem_ctrls.bw_total::switch_cpus1.data     38221806                       # Total bandwidth to/from this memory (bytes/s)
system.mem_ctrls.bw_total::switch_cpus2.inst     12435568                       # Total bandwidth to/from this memory (bytes/s)
system.mem_ctrls.bw_total::switch_cpus2.data     39234954                       # Total bandwidth to/from this memory (bytes/s)
system.mem_ctrls.bw_total::switch_cpus3.inst     13448716                       # Total bandwidth to/from this memory (bytes/s)
system.mem_ctrls.bw_total::switch_cpus3.data     37568163                       # Total bandwidth to/from this memory (bytes/s)
system.mem_ctrls.bw_total::total            212809998                       # Total bandwidth to/from this memory (bytes/s)
system.mem_ctrls.readReqs                       12570                       # Number of read requests accepted
system.mem_ctrls.writeReqs                        441                       # Number of write requests accepted
system.mem_ctrls.readBursts                     12570                       # Number of DRAM read bursts, including those serviced by the write queue
system.mem_ctrls.writeBursts                      441                       # Number of DRAM write bursts, including those merged in the write queue
system.mem_ctrls.bytesReadDRAM                 801408                       # Total number of bytes read from DRAM
system.mem_ctrls.bytesReadWrQ                    3072                       # Total number of bytes read from write queue
system.mem_ctrls.bytesWritten                   25024                       # Total number of bytes written to DRAM
system.mem_ctrls.bytesReadSys                  804480                       # Total read bytes from the system interface side
system.mem_ctrls.bytesWrittenSys                28224                       # Total written bytes from the system interface side
system.mem_ctrls.servicedByWrQ                     48                       # Number of DRAM read bursts serviced by the write queue
system.mem_ctrls.mergedWrBursts                    19                       # Number of DRAM write bursts merged with an existing one
system.mem_ctrls.neitherReadNorWriteReqs            0                       # Number of requests that are neither read nor write
system.mem_ctrls.perBankRdBursts::0              1122                       # Per bank write bursts
system.mem_ctrls.perBankRdBursts::1              1026                       # Per bank write bursts
system.mem_ctrls.perBankRdBursts::2              1104                       # Per bank write bursts
system.mem_ctrls.perBankRdBursts::3               610                       # Per bank write bursts
system.mem_ctrls.perBankRdBursts::4               588                       # Per bank write bursts
system.mem_ctrls.perBankRdBursts::5               546                       # Per bank write bursts
system.mem_ctrls.perBankRdBursts::6               463                       # Per bank write bursts
system.mem_ctrls.perBankRdBursts::7               416                       # Per bank write bursts
system.mem_ctrls.perBankRdBursts::8               371                       # Per bank write bursts
system.mem_ctrls.perBankRdBursts::9               606                       # Per bank write bursts
system.mem_ctrls.perBankRdBursts::10              718                       # Per bank write bursts
system.mem_ctrls.perBankRdBursts::11              667                       # Per bank write bursts
system.mem_ctrls.perBankRdBursts::12             1361                       # Per bank write bursts
system.mem_ctrls.perBankRdBursts::13             1299                       # Per bank write bursts
system.mem_ctrls.perBankRdBursts::14              891                       # Per bank write bursts
system.mem_ctrls.perBankRdBursts::15              734                       # Per bank write bursts
system.mem_ctrls.perBankWrBursts::0                28                       # Per bank write bursts
system.mem_ctrls.perBankWrBursts::1                75                       # Per bank write bursts
system.mem_ctrls.perBankWrBursts::2                48                       # Per bank write bursts
system.mem_ctrls.perBankWrBursts::3                 9                       # Per bank write bursts
system.mem_ctrls.perBankWrBursts::4                 5                       # Per bank write bursts
system.mem_ctrls.perBankWrBursts::5                 2                       # Per bank write bursts
system.mem_ctrls.perBankWrBursts::6                 0                       # Per bank write bursts
system.mem_ctrls.perBankWrBursts::7                 0                       # Per bank write bursts
system.mem_ctrls.perBankWrBursts::8                 0                       # Per bank write bursts
system.mem_ctrls.perBankWrBursts::9                 3                       # Per bank write bursts
system.mem_ctrls.perBankWrBursts::10                1                       # Per bank write bursts
system.mem_ctrls.perBankWrBursts::11                3                       # Per bank write bursts
system.mem_ctrls.perBankWrBursts::12               47                       # Per bank write bursts
system.mem_ctrls.perBankWrBursts::13              139                       # Per bank write bursts
system.mem_ctrls.perBankWrBursts::14               19                       # Per bank write bursts
system.mem_ctrls.perBankWrBursts::15               12                       # Per bank write bursts
system.mem_ctrls.numRdRetry                         0                       # Number of times read queue was full causing retry
system.mem_ctrls.numWrRetry                         0                       # Number of times write queue was full causing retry
system.mem_ctrls.totGap                    3907408078                       # Total gap between requests
system.mem_ctrls.readPktSize::0                     0                       # Read request sizes (log2)
system.mem_ctrls.readPktSize::1                     0                       # Read request sizes (log2)
system.mem_ctrls.readPktSize::2                     0                       # Read request sizes (log2)
system.mem_ctrls.readPktSize::3                     0                       # Read request sizes (log2)
system.mem_ctrls.readPktSize::4                     0                       # Read request sizes (log2)
system.mem_ctrls.readPktSize::5                     0                       # Read request sizes (log2)
system.mem_ctrls.readPktSize::6                 12570                       # Read request sizes (log2)
system.mem_ctrls.writePktSize::0                    0                       # Write request sizes (log2)
system.mem_ctrls.writePktSize::1                    0                       # Write request sizes (log2)
system.mem_ctrls.writePktSize::2                    0                       # Write request sizes (log2)
system.mem_ctrls.writePktSize::3                    0                       # Write request sizes (log2)
system.mem_ctrls.writePktSize::4                    0                       # Write request sizes (log2)
system.mem_ctrls.writePktSize::5                    0                       # Write request sizes (log2)
system.mem_ctrls.writePktSize::6                  441                       # Write request sizes (log2)
system.mem_ctrls.rdQLenPdf::0                    6498                       # What read queue length does an incoming req see
system.mem_ctrls.rdQLenPdf::1                    3749                       # What read queue length does an incoming req see
system.mem_ctrls.rdQLenPdf::2                    1487                       # What read queue length does an incoming req see
system.mem_ctrls.rdQLenPdf::3                     527                       # What read queue length does an incoming req see
system.mem_ctrls.rdQLenPdf::4                     145                       # What read queue length does an incoming req see
system.mem_ctrls.rdQLenPdf::5                      68                       # What read queue length does an incoming req see
system.mem_ctrls.rdQLenPdf::6                      31                       # What read queue length does an incoming req see
system.mem_ctrls.rdQLenPdf::7                      17                       # What read queue length does an incoming req see
system.mem_ctrls.rdQLenPdf::8                       0                       # What read queue length does an incoming req see
system.mem_ctrls.rdQLenPdf::9                       0                       # What read queue length does an incoming req see
system.mem_ctrls.rdQLenPdf::10                      0                       # What read queue length does an incoming req see
system.mem_ctrls.rdQLenPdf::11                      0                       # What read queue length does an incoming req see
system.mem_ctrls.rdQLenPdf::12                      0                       # What read queue length does an incoming req see
system.mem_ctrls.rdQLenPdf::13                      0                       # What read queue length does an incoming req see
system.mem_ctrls.rdQLenPdf::14                      0                       # What read queue length does an incoming req see
system.mem_ctrls.rdQLenPdf::15                      0                       # What read queue length does an incoming req see
system.mem_ctrls.rdQLenPdf::16                      0                       # What read queue length does an incoming req see
system.mem_ctrls.rdQLenPdf::17                      0                       # What read queue length does an incoming req see
system.mem_ctrls.rdQLenPdf::18                      0                       # What read queue length does an incoming req see
system.mem_ctrls.rdQLenPdf::19                      0                       # What read queue length does an incoming req see
system.mem_ctrls.rdQLenPdf::20                      0                       # What read queue length does an incoming req see
system.mem_ctrls.rdQLenPdf::21                      0                       # What read queue length does an incoming req see
system.mem_ctrls.rdQLenPdf::22                      0                       # What read queue length does an incoming req see
system.mem_ctrls.rdQLenPdf::23                      0                       # What read queue length does an incoming req see
system.mem_ctrls.rdQLenPdf::24                      0                       # What read queue length does an incoming req see
system.mem_ctrls.rdQLenPdf::25                      0                       # What read queue length does an incoming req see
system.mem_ctrls.rdQLenPdf::26                      0                       # What read queue length does an incoming req see
system.mem_ctrls.rdQLenPdf::27                      0                       # What read queue length does an incoming req see
system.mem_ctrls.rdQLenPdf::28                      0                       # What read queue length does an incoming req see
system.mem_ctrls.rdQLenPdf::29                      0                       # What read queue length does an incoming req see
system.mem_ctrls.rdQLenPdf::30                      0                       # What read queue length does an incoming req see
system.mem_ctrls.rdQLenPdf::31                      0                       # What read queue length does an incoming req see
system.mem_ctrls.wrQLenPdf::0                       1                       # What write queue length does an incoming req see
system.mem_ctrls.wrQLenPdf::1                       1                       # What write queue length does an incoming req see
system.mem_ctrls.wrQLenPdf::2                       1                       # What write queue length does an incoming req see
system.mem_ctrls.wrQLenPdf::3                       1                       # What write queue length does an incoming req see
system.mem_ctrls.wrQLenPdf::4                       1                       # What write queue length does an incoming req see
system.mem_ctrls.wrQLenPdf::5                       1                       # What write queue length does an incoming req see
system.mem_ctrls.wrQLenPdf::6                       1                       # What write queue length does an incoming req see
system.mem_ctrls.wrQLenPdf::7                       1                       # What write queue length does an incoming req see
system.mem_ctrls.wrQLenPdf::8                       1                       # What write queue length does an incoming req see
system.mem_ctrls.wrQLenPdf::9                       1                       # What write queue length does an incoming req see
system.mem_ctrls.wrQLenPdf::10                      1                       # What write queue length does an incoming req see
system.mem_ctrls.wrQLenPdf::11                      1                       # What write queue length does an incoming req see
system.mem_ctrls.wrQLenPdf::12                      1                       # What write queue length does an incoming req see
system.mem_ctrls.wrQLenPdf::13                      1                       # What write queue length does an incoming req see
system.mem_ctrls.wrQLenPdf::14                      1                       # What write queue length does an incoming req see
system.mem_ctrls.wrQLenPdf::15                     11                       # What write queue length does an incoming req see
system.mem_ctrls.wrQLenPdf::16                     12                       # What write queue length does an incoming req see
system.mem_ctrls.wrQLenPdf::17                     24                       # What write queue length does an incoming req see
system.mem_ctrls.wrQLenPdf::18                     24                       # What write queue length does an incoming req see
system.mem_ctrls.wrQLenPdf::19                     24                       # What write queue length does an incoming req see
system.mem_ctrls.wrQLenPdf::20                     24                       # What write queue length does an incoming req see
system.mem_ctrls.wrQLenPdf::21                     24                       # What write queue length does an incoming req see
system.mem_ctrls.wrQLenPdf::22                     24                       # What write queue length does an incoming req see
system.mem_ctrls.wrQLenPdf::23                     24                       # What write queue length does an incoming req see
system.mem_ctrls.wrQLenPdf::24                     24                       # What write queue length does an incoming req see
system.mem_ctrls.wrQLenPdf::25                     24                       # What write queue length does an incoming req see
system.mem_ctrls.wrQLenPdf::26                     24                       # What write queue length does an incoming req see
system.mem_ctrls.wrQLenPdf::27                     24                       # What write queue length does an incoming req see
system.mem_ctrls.wrQLenPdf::28                     24                       # What write queue length does an incoming req see
system.mem_ctrls.wrQLenPdf::29                     25                       # What write queue length does an incoming req see
system.mem_ctrls.wrQLenPdf::30                     24                       # What write queue length does an incoming req see
system.mem_ctrls.wrQLenPdf::31                     23                       # What write queue length does an incoming req see
system.mem_ctrls.wrQLenPdf::32                     23                       # What write queue length does an incoming req see
system.mem_ctrls.wrQLenPdf::33                      1                       # What write queue length does an incoming req see
system.mem_ctrls.wrQLenPdf::34                      0                       # What write queue length does an incoming req see
system.mem_ctrls.wrQLenPdf::35                      0                       # What write queue length does an incoming req see
system.mem_ctrls.wrQLenPdf::36                      0                       # What write queue length does an incoming req see
system.mem_ctrls.wrQLenPdf::37                      0                       # What write queue length does an incoming req see
system.mem_ctrls.wrQLenPdf::38                      0                       # What write queue length does an incoming req see
system.mem_ctrls.wrQLenPdf::39                      0                       # What write queue length does an incoming req see
system.mem_ctrls.wrQLenPdf::40                      0                       # What write queue length does an incoming req see
system.mem_ctrls.wrQLenPdf::41                      0                       # What write queue length does an incoming req see
system.mem_ctrls.wrQLenPdf::42                      0                       # What write queue length does an incoming req see
system.mem_ctrls.wrQLenPdf::43                      0                       # What write queue length does an incoming req see
system.mem_ctrls.wrQLenPdf::44                      0                       # What write queue length does an incoming req see
system.mem_ctrls.wrQLenPdf::45                      0                       # What write queue length does an incoming req see
system.mem_ctrls.wrQLenPdf::46                      0                       # What write queue length does an incoming req see
system.mem_ctrls.wrQLenPdf::47                      0                       # What write queue length does an incoming req see
system.mem_ctrls.wrQLenPdf::48                      0                       # What write queue length does an incoming req see
system.mem_ctrls.wrQLenPdf::49                      0                       # What write queue length does an incoming req see
system.mem_ctrls.wrQLenPdf::50                      0                       # What write queue length does an incoming req see
system.mem_ctrls.wrQLenPdf::51                      0                       # What write queue length does an incoming req see
system.mem_ctrls.wrQLenPdf::52                      0                       # What write queue length does an incoming req see
system.mem_ctrls.wrQLenPdf::53                      0                       # What write queue length does an incoming req see
system.mem_ctrls.wrQLenPdf::54                      0                       # What write queue length does an incoming req see
system.mem_ctrls.wrQLenPdf::55                      0                       # What write queue length does an incoming req see
system.mem_ctrls.wrQLenPdf::56                      0                       # What write queue length does an incoming req see
system.mem_ctrls.wrQLenPdf::57                      0                       # What write queue length does an incoming req see
system.mem_ctrls.wrQLenPdf::58                      0                       # What write queue length does an incoming req see
system.mem_ctrls.wrQLenPdf::59                      0                       # What write queue length does an incoming req see
system.mem_ctrls.wrQLenPdf::60                      0                       # What write queue length does an incoming req see
system.mem_ctrls.wrQLenPdf::61                      0                       # What write queue length does an incoming req see
system.mem_ctrls.wrQLenPdf::62                      0                       # What write queue length does an incoming req see
system.mem_ctrls.wrQLenPdf::63                      0                       # What write queue length does an incoming req see
system.mem_ctrls.bytesPerActivate::samples         7450                       # Bytes accessed per row activation
system.mem_ctrls.bytesPerActivate::mean    110.930470                       # Bytes accessed per row activation
system.mem_ctrls.bytesPerActivate::gmean    86.276976                       # Bytes accessed per row activation
system.mem_ctrls.bytesPerActivate::stdev   124.879772                       # Bytes accessed per row activation
system.mem_ctrls.bytesPerActivate::0-127         5486     73.64%     73.64% # Bytes accessed per row activation
system.mem_ctrls.bytesPerActivate::128-255         1373     18.43%     92.07% # Bytes accessed per row activation
system.mem_ctrls.bytesPerActivate::256-383          234      3.14%     95.21% # Bytes accessed per row activation
system.mem_ctrls.bytesPerActivate::384-511          122      1.64%     96.85% # Bytes accessed per row activation
system.mem_ctrls.bytesPerActivate::512-639           97      1.30%     98.15% # Bytes accessed per row activation
system.mem_ctrls.bytesPerActivate::640-767           74      0.99%     99.14% # Bytes accessed per row activation
system.mem_ctrls.bytesPerActivate::768-895           15      0.20%     99.34% # Bytes accessed per row activation
system.mem_ctrls.bytesPerActivate::896-1023           16      0.21%     99.56% # Bytes accessed per row activation
system.mem_ctrls.bytesPerActivate::1024-1151           33      0.44%    100.00% # Bytes accessed per row activation
system.mem_ctrls.bytesPerActivate::total         7450                       # Bytes accessed per row activation
system.mem_ctrls.rdPerTurnAround::samples           23                       # Reads before turning the bus around for writes
system.mem_ctrls.rdPerTurnAround::mean     528.391304                       # Reads before turning the bus around for writes
system.mem_ctrls.rdPerTurnAround::gmean    253.831943                       # Reads before turning the bus around for writes
system.mem_ctrls.rdPerTurnAround::stdev   1290.628344                       # Reads before turning the bus around for writes
system.mem_ctrls.rdPerTurnAround::0-255            12     52.17%     52.17% # Reads before turning the bus around for writes
system.mem_ctrls.rdPerTurnAround::256-511            9     39.13%     91.30% # Reads before turning the bus around for writes
system.mem_ctrls.rdPerTurnAround::512-767            1      4.35%     95.65% # Reads before turning the bus around for writes
system.mem_ctrls.rdPerTurnAround::6400-6655            1      4.35%    100.00% # Reads before turning the bus around for writes
system.mem_ctrls.rdPerTurnAround::total            23                       # Reads before turning the bus around for writes
system.mem_ctrls.wrPerTurnAround::samples           23                       # Writes before turning the bus around for reads
system.mem_ctrls.wrPerTurnAround::mean             17                       # Writes before turning the bus around for reads
system.mem_ctrls.wrPerTurnAround::gmean     16.967004                       # Writes before turning the bus around for reads
system.mem_ctrls.wrPerTurnAround::stdev      1.087115                       # Writes before turning the bus around for reads
system.mem_ctrls.wrPerTurnAround::16               12     52.17%     52.17% # Writes before turning the bus around for reads
system.mem_ctrls.wrPerTurnAround::18               10     43.48%     95.65% # Writes before turning the bus around for reads
system.mem_ctrls.wrPerTurnAround::19                1      4.35%    100.00% # Writes before turning the bus around for reads
system.mem_ctrls.wrPerTurnAround::total            23                       # Writes before turning the bus around for reads
system.mem_ctrls.totQLat                    469155684                       # Total ticks spent queuing
system.mem_ctrls.totMemAccLat               703943184                       # Total ticks spent from burst creation until serviced by the DRAM
system.mem_ctrls.totBusLat                   62610000                       # Total ticks spent in databus transfers
system.mem_ctrls.avgQLat                     37466.51                       # Average queueing delay per DRAM burst
system.mem_ctrls.avgBusLat                    5000.00                       # Average bus latency per DRAM burst
system.mem_ctrls.avgMemAccLat                56216.51                       # Average memory access latency per DRAM burst
system.mem_ctrls.avgRdBW                       204.62                       # Average DRAM read bandwidth in MiByte/s
system.mem_ctrls.avgWrBW                         6.39                       # Average achieved write bandwidth in MiByte/s
system.mem_ctrls.avgRdBWSys                    205.41                       # Average system read bandwidth in MiByte/s
system.mem_ctrls.avgWrBWSys                      7.21                       # Average system write bandwidth in MiByte/s
system.mem_ctrls.peakBW                      12800.00                       # Theoretical peak bandwidth in MiByte/s
system.mem_ctrls.busUtil                         1.65                       # Data bus utilization in percentage
system.mem_ctrls.busUtilRead                     1.60                       # Data bus utilization in percentage for reads
system.mem_ctrls.busUtilWrite                    0.05                       # Data bus utilization in percentage for writes
system.mem_ctrls.avgRdQLen                       1.34                       # Average read queue length when enqueuing
system.mem_ctrls.avgWrQLen                      21.21                       # Average write queue length when enqueuing
system.mem_ctrls.readRowHits                     5227                       # Number of row buffer hits during reads
system.mem_ctrls.writeRowHits                     236                       # Number of row buffer hits during writes
system.mem_ctrls.readRowHitRate                 41.74                       # Row buffer hit rate for reads
system.mem_ctrls.writeRowHitRate                55.92                       # Row buffer hit rate for writes
system.mem_ctrls.avgGap                     300315.74                       # Average gap between requests
system.mem_ctrls.pageHitRate                    42.20                       # Row buffer hit rate, read and write combined
system.mem_ctrls_0.actEnergy                 26924940                       # Energy for activate commands per rank (pJ)
system.mem_ctrls_0.preEnergy                 14310945                       # Energy for precharge commands per rank (pJ)
system.mem_ctrls_0.readEnergy                41947500                       # Energy for read commands per rank (pJ)
system.mem_ctrls_0.writeEnergy                 871740                       # Energy for write commands per rank (pJ)
system.mem_ctrls_0.refreshEnergy         287036880.000000                       # Energy for refresh commands per rank (pJ)
system.mem_ctrls_0.actBackEnergy            150773550                       # Energy for active background per rank (pJ)
system.mem_ctrls_0.preBackEnergy             14074080                       # Energy for precharge background per rank (pJ)
system.mem_ctrls_0.actPowerDownEnergy       775173210                       # Energy for active power-down per rank (pJ)
system.mem_ctrls_0.prePowerDownEnergy       396055200                       # Energy for precharge power-down per rank (pJ)
system.mem_ctrls_0.selfRefreshEnergy        237793815                       # Energy for self refresh per rank (pJ)
system.mem_ctrls_0.totalEnergy             1945226640                       # Total energy per rank (pJ)
system.mem_ctrls_0.averagePower            496.675062                       # Core power per rank (mW)
system.mem_ctrls_0.totalIdleTime           3542120545                       # Total Idle time Per DRAM Rank
system.mem_ctrls_0.memoryStateTime::IDLE     21654418                       # Time in different power states
system.mem_ctrls_0.memoryStateTime::REF     121894000                       # Time in different power states
system.mem_ctrls_0.memoryStateTime::SREF    817284681                       # Time in different power states
system.mem_ctrls_0.memoryStateTime::PRE_PDN   1031400908                       # Time in different power states
system.mem_ctrls_0.memoryStateTime::ACT     224305468                       # Time in different power states
system.mem_ctrls_0.memoryStateTime::ACT_PDN   1699958246                       # Time in different power states
system.mem_ctrls_1.actEnergy                 26268060                       # Energy for activate commands per rank (pJ)
system.mem_ctrls_1.preEnergy                 13961805                       # Energy for precharge commands per rank (pJ)
system.mem_ctrls_1.readEnergy                47459580                       # Energy for read commands per rank (pJ)
system.mem_ctrls_1.writeEnergy                1169280                       # Energy for write commands per rank (pJ)
system.mem_ctrls_1.refreshEnergy         311007840.000000                       # Energy for refresh commands per rank (pJ)
system.mem_ctrls_1.actBackEnergy            165947520                       # Energy for active background per rank (pJ)
system.mem_ctrls_1.preBackEnergy             14008320                       # Energy for precharge background per rank (pJ)
system.mem_ctrls_1.actPowerDownEnergy       833763510                       # Energy for active power-down per rank (pJ)
system.mem_ctrls_1.prePowerDownEnergy       437139360                       # Energy for precharge power-down per rank (pJ)
system.mem_ctrls_1.selfRefreshEnergy        175484565                       # Energy for self refresh per rank (pJ)
system.mem_ctrls_1.totalEnergy             2026264710                       # Total energy per rank (pJ)
system.mem_ctrls_1.averagePower            517.366527                       # Core power per rank (mW)
system.mem_ctrls_1.totalIdleTime           3512098279                       # Total Idle time Per DRAM Rank
system.mem_ctrls_1.memoryStateTime::IDLE     22904000                       # Time in different power states
system.mem_ctrls_1.memoryStateTime::REF     132052000                       # Time in different power states
system.mem_ctrls_1.memoryStateTime::SREF    549158971                       # Time in different power states
system.mem_ctrls_1.memoryStateTime::PRE_PDN   1138395372                       # Time in different power states
system.mem_ctrls_1.memoryStateTime::ACT     245626582                       # Time in different power states
system.mem_ctrls_1.memoryStateTime::ACT_PDN   1828360796                       # Time in different power states
system.pwrStateResidencyTicks::UNDEFINED 114521120721                       # Cumulative time (in ticks) in various power states
system.cpu_voltage_domain.voltage                   1                       # Voltage in Volts
system.cpu_clk_domain.clock                       833                       # Clock period in ticks
system.cpu0.dtb.walker.pwrStateResidencyTicks::UNDEFINED 114521120721                       # Cumulative time (in ticks) in various power states
system.cpu0.apic_clk_domain.clock               13328                       # Clock period in ticks
system.cpu0.interrupts.pwrStateResidencyTicks::UNDEFINED 114521120721                       # Cumulative time (in ticks) in various power states
system.cpu0.itb.walker.pwrStateResidencyTicks::UNDEFINED 114521120721                       # Cumulative time (in ticks) in various power states
system.cpu0.workload.num_syscalls                   0                       # Number of system calls
system.cpu0.pwrStateResidencyTicks::ON     3916507721                       # Cumulative time (in ticks) in various power states
system.cpu0.numCycles                              11                       # number of cpu cycles simulated
system.cpu0.numWorkItemsStarted                     0                       # number of work items this cpu started
system.cpu0.numWorkItemsCompleted                   0                       # number of work items this cpu completed
system.cpu0.committedInsts                          5                       # Number of instructions committed
system.cpu0.committedOps                            9                       # Number of ops (including micro ops) committed
system.cpu0.num_int_alu_accesses                    9                       # Number of integer alu accesses
system.cpu0.num_fp_alu_accesses                     0                       # Number of float alu accesses
system.cpu0.num_func_calls                          0                       # number of times a function call or return occured
system.cpu0.num_conditional_control_insts            0                       # number of instructions that are conditional controls
system.cpu0.num_int_insts                           9                       # number of integer instructions
system.cpu0.num_fp_insts                            0                       # number of float instructions
system.cpu0.num_int_register_reads                 18                       # number of times the integer registers were read
system.cpu0.num_int_register_writes                 9                       # number of times the integer registers were written
system.cpu0.num_fp_register_reads                   0                       # number of times the floating registers were read
system.cpu0.num_fp_register_writes                  0                       # number of times the floating registers were written
system.cpu0.num_cc_register_reads                  13                       # number of times the CC registers were read
system.cpu0.num_cc_register_writes                  6                       # number of times the CC registers were written
system.cpu0.num_mem_refs                            2                       # number of memory refs
system.cpu0.num_load_insts                          2                       # Number of load instructions
system.cpu0.num_store_insts                         0                       # Number of store instructions
system.cpu0.num_idle_cycles                         0                       # Number of idle cycles
system.cpu0.num_busy_cycles                        11                       # Number of busy cycles
system.cpu0.not_idle_fraction                       1                       # Percentage of non-idle cycles
system.cpu0.idle_fraction                           0                       # Percentage of idle cycles
system.cpu0.op_class::No_OpClass                    0      0.00%      0.00% # Class of executed instruction
system.cpu0.op_class::IntAlu                        7     77.78%     77.78% # Class of executed instruction
system.cpu0.op_class::IntMult                       0      0.00%     77.78% # Class of executed instruction
system.cpu0.op_class::IntDiv                        0      0.00%     77.78% # Class of executed instruction
system.cpu0.op_class::FloatAdd                      0      0.00%     77.78% # Class of executed instruction
system.cpu0.op_class::FloatCmp                      0      0.00%     77.78% # Class of executed instruction
system.cpu0.op_class::FloatCvt                      0      0.00%     77.78% # Class of executed instruction
system.cpu0.op_class::FloatMult                     0      0.00%     77.78% # Class of executed instruction
system.cpu0.op_class::FloatMultAcc                  0      0.00%     77.78% # Class of executed instruction
system.cpu0.op_class::FloatDiv                      0      0.00%     77.78% # Class of executed instruction
system.cpu0.op_class::FloatMisc                     0      0.00%     77.78% # Class of executed instruction
system.cpu0.op_class::FloatSqrt                     0      0.00%     77.78% # Class of executed instruction
system.cpu0.op_class::SimdAdd                       0      0.00%     77.78% # Class of executed instruction
system.cpu0.op_class::SimdAddAcc                    0      0.00%     77.78% # Class of executed instruction
system.cpu0.op_class::SimdAlu                       0      0.00%     77.78% # Class of executed instruction
system.cpu0.op_class::SimdCmp                       0      0.00%     77.78% # Class of executed instruction
system.cpu0.op_class::SimdCvt                       0      0.00%     77.78% # Class of executed instruction
system.cpu0.op_class::SimdMisc                      0      0.00%     77.78% # Class of executed instruction
system.cpu0.op_class::SimdMult                      0      0.00%     77.78% # Class of executed instruction
system.cpu0.op_class::SimdMultAcc                   0      0.00%     77.78% # Class of executed instruction
system.cpu0.op_class::SimdShift                     0      0.00%     77.78% # Class of executed instruction
system.cpu0.op_class::SimdShiftAcc                  0      0.00%     77.78% # Class of executed instruction
system.cpu0.op_class::SimdSqrt                      0      0.00%     77.78% # Class of executed instruction
system.cpu0.op_class::SimdFloatAdd                  0      0.00%     77.78% # Class of executed instruction
system.cpu0.op_class::SimdFloatAlu                  0      0.00%     77.78% # Class of executed instruction
system.cpu0.op_class::SimdFloatCmp                  0      0.00%     77.78% # Class of executed instruction
system.cpu0.op_class::SimdFloatCvt                  0      0.00%     77.78% # Class of executed instruction
system.cpu0.op_class::SimdFloatDiv                  0      0.00%     77.78% # Class of executed instruction
system.cpu0.op_class::SimdFloatMisc                 0      0.00%     77.78% # Class of executed instruction
system.cpu0.op_class::SimdFloatMult                 0      0.00%     77.78% # Class of executed instruction
system.cpu0.op_class::SimdFloatMultAcc              0      0.00%     77.78% # Class of executed instruction
system.cpu0.op_class::SimdFloatSqrt                 0      0.00%     77.78% # Class of executed instruction
system.cpu0.op_class::MemRead                       2     22.22%    100.00% # Class of executed instruction
system.cpu0.op_class::MemWrite                      0      0.00%    100.00% # Class of executed instruction
system.cpu0.op_class::FloatMemRead                  0      0.00%    100.00% # Class of executed instruction
system.cpu0.op_class::FloatMemWrite                 0      0.00%    100.00% # Class of executed instruction
system.cpu0.op_class::IprAccess                     0      0.00%    100.00% # Class of executed instruction
system.cpu0.op_class::InstPrefetch                  0      0.00%    100.00% # Class of executed instruction
system.cpu0.op_class::total                         9                       # Class of executed instruction
system.cpu0.dcache.tags.pwrStateResidencyTicks::UNDEFINED 114521120721                       # Cumulative time (in ticks) in various power states
system.cpu0.dcache.tags.replacements            46104                       # number of replacements
system.cpu0.dcache.tags.tagsinuse          127.256663                       # Cycle average of tags in use
system.cpu0.dcache.tags.total_refs             371867                       # Total number of references to valid blocks.
system.cpu0.dcache.tags.sampled_refs            46104                       # Sample count of references to valid blocks.
system.cpu0.dcache.tags.avg_refs             8.065829                       # Average number of references to valid blocks.
system.cpu0.dcache.tags.warmup_cycle     110660151560                       # Cycle when the warmup percentage was hit.
system.cpu0.dcache.tags.occ_blocks::cpu0.data     0.015953                       # Average occupied blocks per requestor
system.cpu0.dcache.tags.occ_blocks::switch_cpus0.data   127.240710                       # Average occupied blocks per requestor
system.cpu0.dcache.tags.occ_percent::cpu0.data     0.000125                       # Average percentage of cache occupancy
system.cpu0.dcache.tags.occ_percent::switch_cpus0.data     0.994068                       # Average percentage of cache occupancy
system.cpu0.dcache.tags.occ_percent::total     0.994193                       # Average percentage of cache occupancy
system.cpu0.dcache.tags.occ_task_id_blocks::1024          128                       # Occupied blocks per task id
system.cpu0.dcache.tags.age_task_id_blocks_1024::0          124                       # Occupied blocks per task id
system.cpu0.dcache.tags.age_task_id_blocks_1024::1            4                       # Occupied blocks per task id
system.cpu0.dcache.tags.occ_task_id_percent::1024            1                       # Percentage of cache occupancy per task id
system.cpu0.dcache.tags.tag_accesses          3418848                       # Number of tag accesses
system.cpu0.dcache.tags.data_accesses         3418848                       # Number of data accesses
system.cpu0.dcache.pwrStateResidencyTicks::UNDEFINED 114521120721                       # Cumulative time (in ticks) in various power states
system.cpu0.dcache.ReadReq_hits::switch_cpus0.data       296644                       # number of ReadReq hits
system.cpu0.dcache.ReadReq_hits::total         296644                       # number of ReadReq hits
system.cpu0.dcache.WriteReq_hits::switch_cpus0.data        76207                       # number of WriteReq hits
system.cpu0.dcache.WriteReq_hits::total         76207                       # number of WriteReq hits
system.cpu0.dcache.demand_hits::switch_cpus0.data       372851                       # number of demand (read+write) hits
system.cpu0.dcache.demand_hits::total          372851                       # number of demand (read+write) hits
system.cpu0.dcache.overall_hits::switch_cpus0.data       372851                       # number of overall hits
system.cpu0.dcache.overall_hits::total         372851                       # number of overall hits
system.cpu0.dcache.ReadReq_misses::cpu0.data            2                       # number of ReadReq misses
system.cpu0.dcache.ReadReq_misses::switch_cpus0.data        44596                       # number of ReadReq misses
system.cpu0.dcache.ReadReq_misses::total        44598                       # number of ReadReq misses
system.cpu0.dcache.WriteReq_misses::switch_cpus0.data         4128                       # number of WriteReq misses
system.cpu0.dcache.WriteReq_misses::total         4128                       # number of WriteReq misses
system.cpu0.dcache.demand_misses::cpu0.data            2                       # number of demand (read+write) misses
system.cpu0.dcache.demand_misses::switch_cpus0.data        48724                       # number of demand (read+write) misses
system.cpu0.dcache.demand_misses::total         48726                       # number of demand (read+write) misses
system.cpu0.dcache.overall_misses::cpu0.data            2                       # number of overall misses
system.cpu0.dcache.overall_misses::switch_cpus0.data        48724                       # number of overall misses
system.cpu0.dcache.overall_misses::total        48726                       # number of overall misses
system.cpu0.dcache.ReadReq_miss_latency::switch_cpus0.data   1135811327                       # number of ReadReq miss cycles
system.cpu0.dcache.ReadReq_miss_latency::total   1135811327                       # number of ReadReq miss cycles
system.cpu0.dcache.WriteReq_miss_latency::switch_cpus0.data    273374773                       # number of WriteReq miss cycles
system.cpu0.dcache.WriteReq_miss_latency::total    273374773                       # number of WriteReq miss cycles
system.cpu0.dcache.demand_miss_latency::switch_cpus0.data   1409186100                       # number of demand (read+write) miss cycles
system.cpu0.dcache.demand_miss_latency::total   1409186100                       # number of demand (read+write) miss cycles
system.cpu0.dcache.overall_miss_latency::switch_cpus0.data   1409186100                       # number of overall miss cycles
system.cpu0.dcache.overall_miss_latency::total   1409186100                       # number of overall miss cycles
system.cpu0.dcache.ReadReq_accesses::cpu0.data            2                       # number of ReadReq accesses(hits+misses)
system.cpu0.dcache.ReadReq_accesses::switch_cpus0.data       341240                       # number of ReadReq accesses(hits+misses)
system.cpu0.dcache.ReadReq_accesses::total       341242                       # number of ReadReq accesses(hits+misses)
system.cpu0.dcache.WriteReq_accesses::switch_cpus0.data        80335                       # number of WriteReq accesses(hits+misses)
system.cpu0.dcache.WriteReq_accesses::total        80335                       # number of WriteReq accesses(hits+misses)
system.cpu0.dcache.demand_accesses::cpu0.data            2                       # number of demand (read+write) accesses
system.cpu0.dcache.demand_accesses::switch_cpus0.data       421575                       # number of demand (read+write) accesses
system.cpu0.dcache.demand_accesses::total       421577                       # number of demand (read+write) accesses
system.cpu0.dcache.overall_accesses::cpu0.data            2                       # number of overall (read+write) accesses
system.cpu0.dcache.overall_accesses::switch_cpus0.data       421575                       # number of overall (read+write) accesses
system.cpu0.dcache.overall_accesses::total       421577                       # number of overall (read+write) accesses
system.cpu0.dcache.ReadReq_miss_rate::cpu0.data            1                       # miss rate for ReadReq accesses
system.cpu0.dcache.ReadReq_miss_rate::switch_cpus0.data     0.130688                       # miss rate for ReadReq accesses
system.cpu0.dcache.ReadReq_miss_rate::total     0.130693                       # miss rate for ReadReq accesses
system.cpu0.dcache.WriteReq_miss_rate::switch_cpus0.data     0.051385                       # miss rate for WriteReq accesses
system.cpu0.dcache.WriteReq_miss_rate::total     0.051385                       # miss rate for WriteReq accesses
system.cpu0.dcache.demand_miss_rate::cpu0.data            1                       # miss rate for demand accesses
system.cpu0.dcache.demand_miss_rate::switch_cpus0.data     0.115576                       # miss rate for demand accesses
system.cpu0.dcache.demand_miss_rate::total     0.115580                       # miss rate for demand accesses
system.cpu0.dcache.overall_miss_rate::cpu0.data            1                       # miss rate for overall accesses
system.cpu0.dcache.overall_miss_rate::switch_cpus0.data     0.115576                       # miss rate for overall accesses
system.cpu0.dcache.overall_miss_rate::total     0.115580                       # miss rate for overall accesses
system.cpu0.dcache.ReadReq_avg_miss_latency::switch_cpus0.data 25468.905888                       # average ReadReq miss latency
system.cpu0.dcache.ReadReq_avg_miss_latency::total 25467.763734                       # average ReadReq miss latency
system.cpu0.dcache.WriteReq_avg_miss_latency::switch_cpus0.data 66224.508963                       # average WriteReq miss latency
system.cpu0.dcache.WriteReq_avg_miss_latency::total 66224.508963                       # average WriteReq miss latency
system.cpu0.dcache.demand_avg_miss_latency::switch_cpus0.data 28921.806502                       # average overall miss latency
system.cpu0.dcache.demand_avg_miss_latency::total 28920.619382                       # average overall miss latency
system.cpu0.dcache.overall_avg_miss_latency::switch_cpus0.data 28921.806502                       # average overall miss latency
system.cpu0.dcache.overall_avg_miss_latency::total 28920.619382                       # average overall miss latency
system.cpu0.dcache.blocked_cycles::no_mshrs            0                       # number of cycles access was blocked
system.cpu0.dcache.blocked_cycles::no_targets            0                       # number of cycles access was blocked
system.cpu0.dcache.blocked::no_mshrs                0                       # number of cycles access was blocked
system.cpu0.dcache.blocked::no_targets              0                       # number of cycles access was blocked
system.cpu0.dcache.avg_blocked_cycles::no_mshrs          nan                       # average number of cycles each access was blocked
system.cpu0.dcache.avg_blocked_cycles::no_targets          nan                       # average number of cycles each access was blocked
system.cpu0.dcache.writebacks::writebacks         8120                       # number of writebacks
system.cpu0.dcache.writebacks::total             8120                       # number of writebacks
system.cpu0.dcache.ReadReq_mshr_hits::switch_cpus0.data          985                       # number of ReadReq MSHR hits
system.cpu0.dcache.ReadReq_mshr_hits::total          985                       # number of ReadReq MSHR hits
system.cpu0.dcache.WriteReq_mshr_hits::switch_cpus0.data         1509                       # number of WriteReq MSHR hits
system.cpu0.dcache.WriteReq_mshr_hits::total         1509                       # number of WriteReq MSHR hits
system.cpu0.dcache.demand_mshr_hits::switch_cpus0.data         2494                       # number of demand (read+write) MSHR hits
system.cpu0.dcache.demand_mshr_hits::total         2494                       # number of demand (read+write) MSHR hits
system.cpu0.dcache.overall_mshr_hits::switch_cpus0.data         2494                       # number of overall MSHR hits
system.cpu0.dcache.overall_mshr_hits::total         2494                       # number of overall MSHR hits
system.cpu0.dcache.ReadReq_mshr_misses::switch_cpus0.data        43611                       # number of ReadReq MSHR misses
system.cpu0.dcache.ReadReq_mshr_misses::total        43611                       # number of ReadReq MSHR misses
system.cpu0.dcache.WriteReq_mshr_misses::switch_cpus0.data         2619                       # number of WriteReq MSHR misses
system.cpu0.dcache.WriteReq_mshr_misses::total         2619                       # number of WriteReq MSHR misses
system.cpu0.dcache.demand_mshr_misses::switch_cpus0.data        46230                       # number of demand (read+write) MSHR misses
system.cpu0.dcache.demand_mshr_misses::total        46230                       # number of demand (read+write) MSHR misses
system.cpu0.dcache.overall_mshr_misses::switch_cpus0.data        46230                       # number of overall MSHR misses
system.cpu0.dcache.overall_mshr_misses::total        46230                       # number of overall MSHR misses
system.cpu0.dcache.ReadReq_mshr_miss_latency::switch_cpus0.data   1030251901                       # number of ReadReq MSHR miss cycles
system.cpu0.dcache.ReadReq_mshr_miss_latency::total   1030251901                       # number of ReadReq MSHR miss cycles
system.cpu0.dcache.WriteReq_mshr_miss_latency::switch_cpus0.data    156654813                       # number of WriteReq MSHR miss cycles
system.cpu0.dcache.WriteReq_mshr_miss_latency::total    156654813                       # number of WriteReq MSHR miss cycles
system.cpu0.dcache.demand_mshr_miss_latency::switch_cpus0.data   1186906714                       # number of demand (read+write) MSHR miss cycles
system.cpu0.dcache.demand_mshr_miss_latency::total   1186906714                       # number of demand (read+write) MSHR miss cycles
system.cpu0.dcache.overall_mshr_miss_latency::switch_cpus0.data   1186906714                       # number of overall MSHR miss cycles
system.cpu0.dcache.overall_mshr_miss_latency::total   1186906714                       # number of overall MSHR miss cycles
system.cpu0.dcache.ReadReq_mshr_miss_rate::switch_cpus0.data     0.127802                       # mshr miss rate for ReadReq accesses
system.cpu0.dcache.ReadReq_mshr_miss_rate::total     0.127801                       # mshr miss rate for ReadReq accesses
system.cpu0.dcache.WriteReq_mshr_miss_rate::switch_cpus0.data     0.032601                       # mshr miss rate for WriteReq accesses
system.cpu0.dcache.WriteReq_mshr_miss_rate::total     0.032601                       # mshr miss rate for WriteReq accesses
system.cpu0.dcache.demand_mshr_miss_rate::switch_cpus0.data     0.109660                       # mshr miss rate for demand accesses
system.cpu0.dcache.demand_mshr_miss_rate::total     0.109660                       # mshr miss rate for demand accesses
system.cpu0.dcache.overall_mshr_miss_rate::switch_cpus0.data     0.109660                       # mshr miss rate for overall accesses
system.cpu0.dcache.overall_mshr_miss_rate::total     0.109660                       # mshr miss rate for overall accesses
system.cpu0.dcache.ReadReq_avg_mshr_miss_latency::switch_cpus0.data 23623.670656                       # average ReadReq mshr miss latency
system.cpu0.dcache.ReadReq_avg_mshr_miss_latency::total 23623.670656                       # average ReadReq mshr miss latency
system.cpu0.dcache.WriteReq_avg_mshr_miss_latency::switch_cpus0.data 59814.743414                       # average WriteReq mshr miss latency
system.cpu0.dcache.WriteReq_avg_mshr_miss_latency::total 59814.743414                       # average WriteReq mshr miss latency
system.cpu0.dcache.demand_avg_mshr_miss_latency::switch_cpus0.data 25673.950119                       # average overall mshr miss latency
system.cpu0.dcache.demand_avg_mshr_miss_latency::total 25673.950119                       # average overall mshr miss latency
system.cpu0.dcache.overall_avg_mshr_miss_latency::switch_cpus0.data 25673.950119                       # average overall mshr miss latency
system.cpu0.dcache.overall_avg_mshr_miss_latency::total 25673.950119                       # average overall mshr miss latency
system.cpu0.dtb_walker_cache.tags.pwrStateResidencyTicks::UNDEFINED 114521120721                       # Cumulative time (in ticks) in various power states
system.cpu0.dtb_walker_cache.tags.replacements            0                       # number of replacements
system.cpu0.dtb_walker_cache.tags.tagsinuse            0                       # Cycle average of tags in use
system.cpu0.dtb_walker_cache.tags.total_refs            0                       # Total number of references to valid blocks.
system.cpu0.dtb_walker_cache.tags.sampled_refs            0                       # Sample count of references to valid blocks.
system.cpu0.dtb_walker_cache.tags.avg_refs          nan                       # Average number of references to valid blocks.
system.cpu0.dtb_walker_cache.tags.warmup_cycle            0                       # Cycle when the warmup percentage was hit.
system.cpu0.dtb_walker_cache.tags.tag_accesses            0                       # Number of tag accesses
system.cpu0.dtb_walker_cache.tags.data_accesses            0                       # Number of data accesses
system.cpu0.dtb_walker_cache.pwrStateResidencyTicks::UNDEFINED 114521120721                       # Cumulative time (in ticks) in various power states
system.cpu0.dtb_walker_cache.blocked_cycles::no_mshrs            0                       # number of cycles access was blocked
system.cpu0.dtb_walker_cache.blocked_cycles::no_targets            0                       # number of cycles access was blocked
system.cpu0.dtb_walker_cache.blocked::no_mshrs            0                       # number of cycles access was blocked
system.cpu0.dtb_walker_cache.blocked::no_targets            0                       # number of cycles access was blocked
system.cpu0.dtb_walker_cache.avg_blocked_cycles::no_mshrs          nan                       # average number of cycles each access was blocked
system.cpu0.dtb_walker_cache.avg_blocked_cycles::no_targets          nan                       # average number of cycles each access was blocked
system.cpu0.icache.tags.pwrStateResidencyTicks::UNDEFINED 114521120721                       # Cumulative time (in ticks) in various power states
system.cpu0.icache.tags.replacements            43826                       # number of replacements
system.cpu0.icache.tags.tagsinuse          127.704241                       # Cycle average of tags in use
system.cpu0.icache.tags.total_refs             252718                       # Total number of references to valid blocks.
system.cpu0.icache.tags.sampled_refs            43826                       # Sample count of references to valid blocks.
system.cpu0.icache.tags.avg_refs             5.766394                       # Average number of references to valid blocks.
system.cpu0.icache.tags.warmup_cycle     110627606250                       # Cycle when the warmup percentage was hit.
system.cpu0.icache.tags.occ_blocks::cpu0.inst     0.008384                       # Average occupied blocks per requestor
system.cpu0.icache.tags.occ_blocks::switch_cpus0.inst   127.695857                       # Average occupied blocks per requestor
system.cpu0.icache.tags.occ_percent::cpu0.inst     0.000065                       # Average percentage of cache occupancy
system.cpu0.icache.tags.occ_percent::switch_cpus0.inst     0.997624                       # Average percentage of cache occupancy
system.cpu0.icache.tags.occ_percent::total     0.997689                       # Average percentage of cache occupancy
system.cpu0.icache.tags.occ_task_id_blocks::1024          128                       # Occupied blocks per task id
system.cpu0.icache.tags.age_task_id_blocks_1024::0            4                       # Occupied blocks per task id
system.cpu0.icache.tags.age_task_id_blocks_1024::1           46                       # Occupied blocks per task id
system.cpu0.icache.tags.age_task_id_blocks_1024::2           15                       # Occupied blocks per task id
system.cpu0.icache.tags.age_task_id_blocks_1024::3           63                       # Occupied blocks per task id
system.cpu0.icache.tags.occ_task_id_percent::1024            1                       # Percentage of cache occupancy per task id
system.cpu0.icache.tags.tag_accesses          2908546                       # Number of tag accesses
system.cpu0.icache.tags.data_accesses         2908546                       # Number of data accesses
system.cpu0.icache.pwrStateResidencyTicks::UNDEFINED 114521120721                       # Cumulative time (in ticks) in various power states
system.cpu0.icache.ReadReq_hits::cpu0.inst            6                       # number of ReadReq hits
system.cpu0.icache.ReadReq_hits::switch_cpus0.inst       314114                       # number of ReadReq hits
system.cpu0.icache.ReadReq_hits::total         314120                       # number of ReadReq hits
system.cpu0.icache.demand_hits::cpu0.inst            6                       # number of demand (read+write) hits
system.cpu0.icache.demand_hits::switch_cpus0.inst       314114                       # number of demand (read+write) hits
system.cpu0.icache.demand_hits::total          314120                       # number of demand (read+write) hits
system.cpu0.icache.overall_hits::cpu0.inst            6                       # number of overall hits
system.cpu0.icache.overall_hits::switch_cpus0.inst       314114                       # number of overall hits
system.cpu0.icache.overall_hits::total         314120                       # number of overall hits
system.cpu0.icache.ReadReq_misses::cpu0.inst            1                       # number of ReadReq misses
system.cpu0.icache.ReadReq_misses::switch_cpus0.inst        43953                       # number of ReadReq misses
system.cpu0.icache.ReadReq_misses::total        43954                       # number of ReadReq misses
system.cpu0.icache.demand_misses::cpu0.inst            1                       # number of demand (read+write) misses
system.cpu0.icache.demand_misses::switch_cpus0.inst        43953                       # number of demand (read+write) misses
system.cpu0.icache.demand_misses::total         43954                       # number of demand (read+write) misses
system.cpu0.icache.overall_misses::cpu0.inst            1                       # number of overall misses
system.cpu0.icache.overall_misses::switch_cpus0.inst        43953                       # number of overall misses
system.cpu0.icache.overall_misses::total        43954                       # number of overall misses
system.cpu0.icache.ReadReq_miss_latency::switch_cpus0.inst   1048600392                       # number of ReadReq miss cycles
system.cpu0.icache.ReadReq_miss_latency::total   1048600392                       # number of ReadReq miss cycles
system.cpu0.icache.demand_miss_latency::switch_cpus0.inst   1048600392                       # number of demand (read+write) miss cycles
system.cpu0.icache.demand_miss_latency::total   1048600392                       # number of demand (read+write) miss cycles
system.cpu0.icache.overall_miss_latency::switch_cpus0.inst   1048600392                       # number of overall miss cycles
system.cpu0.icache.overall_miss_latency::total   1048600392                       # number of overall miss cycles
system.cpu0.icache.ReadReq_accesses::cpu0.inst            7                       # number of ReadReq accesses(hits+misses)
system.cpu0.icache.ReadReq_accesses::switch_cpus0.inst       358067                       # number of ReadReq accesses(hits+misses)
system.cpu0.icache.ReadReq_accesses::total       358074                       # number of ReadReq accesses(hits+misses)
system.cpu0.icache.demand_accesses::cpu0.inst            7                       # number of demand (read+write) accesses
system.cpu0.icache.demand_accesses::switch_cpus0.inst       358067                       # number of demand (read+write) accesses
system.cpu0.icache.demand_accesses::total       358074                       # number of demand (read+write) accesses
system.cpu0.icache.overall_accesses::cpu0.inst            7                       # number of overall (read+write) accesses
system.cpu0.icache.overall_accesses::switch_cpus0.inst       358067                       # number of overall (read+write) accesses
system.cpu0.icache.overall_accesses::total       358074                       # number of overall (read+write) accesses
system.cpu0.icache.ReadReq_miss_rate::cpu0.inst     0.142857                       # miss rate for ReadReq accesses
system.cpu0.icache.ReadReq_miss_rate::switch_cpus0.inst     0.122751                       # miss rate for ReadReq accesses
system.cpu0.icache.ReadReq_miss_rate::total     0.122751                       # miss rate for ReadReq accesses
system.cpu0.icache.demand_miss_rate::cpu0.inst     0.142857                       # miss rate for demand accesses
system.cpu0.icache.demand_miss_rate::switch_cpus0.inst     0.122751                       # miss rate for demand accesses
system.cpu0.icache.demand_miss_rate::total     0.122751                       # miss rate for demand accesses
system.cpu0.icache.overall_miss_rate::cpu0.inst     0.142857                       # miss rate for overall accesses
system.cpu0.icache.overall_miss_rate::switch_cpus0.inst     0.122751                       # miss rate for overall accesses
system.cpu0.icache.overall_miss_rate::total     0.122751                       # miss rate for overall accesses
system.cpu0.icache.ReadReq_avg_miss_latency::switch_cpus0.inst 23857.311037                       # average ReadReq miss latency
system.cpu0.icache.ReadReq_avg_miss_latency::total 23856.768258                       # average ReadReq miss latency
system.cpu0.icache.demand_avg_miss_latency::switch_cpus0.inst 23857.311037                       # average overall miss latency
system.cpu0.icache.demand_avg_miss_latency::total 23856.768258                       # average overall miss latency
system.cpu0.icache.overall_avg_miss_latency::switch_cpus0.inst 23857.311037                       # average overall miss latency
system.cpu0.icache.overall_avg_miss_latency::total 23856.768258                       # average overall miss latency
system.cpu0.icache.blocked_cycles::no_mshrs            0                       # number of cycles access was blocked
system.cpu0.icache.blocked_cycles::no_targets            0                       # number of cycles access was blocked
system.cpu0.icache.blocked::no_mshrs                0                       # number of cycles access was blocked
system.cpu0.icache.blocked::no_targets              0                       # number of cycles access was blocked
system.cpu0.icache.avg_blocked_cycles::no_mshrs          nan                       # average number of cycles each access was blocked
system.cpu0.icache.avg_blocked_cycles::no_targets          nan                       # average number of cycles each access was blocked
system.cpu0.icache.writebacks::writebacks        43826                       # number of writebacks
system.cpu0.icache.writebacks::total            43826                       # number of writebacks
system.cpu0.icache.ReadReq_mshr_misses::switch_cpus0.inst        43953                       # number of ReadReq MSHR misses
system.cpu0.icache.ReadReq_mshr_misses::total        43953                       # number of ReadReq MSHR misses
system.cpu0.icache.demand_mshr_misses::switch_cpus0.inst        43953                       # number of demand (read+write) MSHR misses
system.cpu0.icache.demand_mshr_misses::total        43953                       # number of demand (read+write) MSHR misses
system.cpu0.icache.overall_mshr_misses::switch_cpus0.inst        43953                       # number of overall MSHR misses
system.cpu0.icache.overall_mshr_misses::total        43953                       # number of overall MSHR misses
system.cpu0.icache.ReadReq_mshr_miss_latency::switch_cpus0.inst    975374694                       # number of ReadReq MSHR miss cycles
system.cpu0.icache.ReadReq_mshr_miss_latency::total    975374694                       # number of ReadReq MSHR miss cycles
system.cpu0.icache.demand_mshr_miss_latency::switch_cpus0.inst    975374694                       # number of demand (read+write) MSHR miss cycles
system.cpu0.icache.demand_mshr_miss_latency::total    975374694                       # number of demand (read+write) MSHR miss cycles
system.cpu0.icache.overall_mshr_miss_latency::switch_cpus0.inst    975374694                       # number of overall MSHR miss cycles
system.cpu0.icache.overall_mshr_miss_latency::total    975374694                       # number of overall MSHR miss cycles
system.cpu0.icache.ReadReq_mshr_miss_rate::switch_cpus0.inst     0.122751                       # mshr miss rate for ReadReq accesses
system.cpu0.icache.ReadReq_mshr_miss_rate::total     0.122748                       # mshr miss rate for ReadReq accesses
system.cpu0.icache.demand_mshr_miss_rate::switch_cpus0.inst     0.122751                       # mshr miss rate for demand accesses
system.cpu0.icache.demand_mshr_miss_rate::total     0.122748                       # mshr miss rate for demand accesses
system.cpu0.icache.overall_mshr_miss_rate::switch_cpus0.inst     0.122751                       # mshr miss rate for overall accesses
system.cpu0.icache.overall_mshr_miss_rate::total     0.122748                       # mshr miss rate for overall accesses
system.cpu0.icache.ReadReq_avg_mshr_miss_latency::switch_cpus0.inst 22191.311037                       # average ReadReq mshr miss latency
system.cpu0.icache.ReadReq_avg_mshr_miss_latency::total 22191.311037                       # average ReadReq mshr miss latency
system.cpu0.icache.demand_avg_mshr_miss_latency::switch_cpus0.inst 22191.311037                       # average overall mshr miss latency
system.cpu0.icache.demand_avg_mshr_miss_latency::total 22191.311037                       # average overall mshr miss latency
[...]
system.switch_cpus2.op_class_0::SimdCvt             0      0.00%     80.06% # Class of committed instruction
system.switch_cpus2.op_class_0::SimdMisc            0      0.00%     80.06% # Class of committed instruction
system.switch_cpus2.op_class_0::SimdMult            0      0.00%     80.06% # Class of committed instruction
system.switch_cpus2.op_class_0::SimdMultAcc            0      0.00%     80.06% # Class of committed instruction
system.switch_cpus2.op_class_0::SimdShift            0      0.00%     80.06% # Class of committed instruction
system.switch_cpus2.op_class_0::SimdShiftAcc            0      0.00%     80.06% # Class of committed instruction
system.switch_cpus2.op_class_0::SimdSqrt            0      0.00%     80.06% # Class of committed instruction
system.switch_cpus2.op_class_0::SimdFloatAdd            0      0.00%     80.06% # Class of committed instruction
system.switch_cpus2.op_class_0::SimdFloatAlu            0      0.00%     80.06% # Class of committed instruction
system.switch_cpus2.op_class_0::SimdFloatCmp            0      0.00%     80.06% # Class of committed instruction
system.switch_cpus2.op_class_0::SimdFloatCvt            0      0.00%     80.06% # Class of committed instruction
system.switch_cpus2.op_class_0::SimdFloatDiv            0      0.00%     80.06% # Class of committed instruction
system.switch_cpus2.op_class_0::SimdFloatMisc            0      0.00%     80.06% # Class of committed instruction
system.switch_cpus2.op_class_0::SimdFloatMult            0      0.00%     80.06% # Class of committed instruction
system.switch_cpus2.op_class_0::SimdFloatMultAcc            0      0.00%     80.06% # Class of committed instruction
system.switch_cpus2.op_class_0::SimdFloatSqrt            0      0.00%     80.06% # Class of committed instruction
system.switch_cpus2.op_class_0::MemRead      28452520     14.50%     94.56% # Class of committed instruction
system.switch_cpus2.op_class_0::MemWrite     10289432      5.24%     99.80% # Class of committed instruction
system.switch_cpus2.op_class_0::FloatMemRead       214056      0.11%     99.91% # Class of committed instruction
system.switch_cpus2.op_class_0::FloatMemWrite       173849      0.09%    100.00% # Class of committed instruction
system.switch_cpus2.op_class_0::IprAccess            0      0.00%    100.00% # Class of committed instruction
system.switch_cpus2.op_class_0::InstPrefetch            0      0.00%    100.00% # Class of committed instruction
system.switch_cpus2.op_class_0::total       196203447                       # Class of committed instruction
system.switch_cpus2.tickCycles              293698986                       # Number of cycles that the object actually ticked
system.switch_cpus2.idleCycles              183028601                       # Total number of cycles that the object has spent stopped
system.switch_cpus3.branchPred.lookups             30                       # Number of BP lookups
system.switch_cpus3.branchPred.condPredicted           30                       # Number of conditional branches predicted
system.switch_cpus3.branchPred.condIncorrect           27                       # Number of conditional branches incorrect
system.switch_cpus3.branchPred.BTBLookups           16                       # Number of BTB lookups
system.switch_cpus3.branchPred.BTBHits              0                       # Number of BTB hits
system.switch_cpus3.branchPred.BTBCorrect            0                       # Number of correct BTB predictions (this stat may not work properly.
system.switch_cpus3.branchPred.BTBHitPct     0.000000                       # BTB Hit Percentage
system.switch_cpus3.branchPred.usedRAS              0                       # Number of times the RAS was used to get a target.
system.switch_cpus3.branchPred.RASInCorrect            0                       # Number of incorrect RAS predictions.
system.switch_cpus3.branchPred.indirectLookups           16                       # Number of indirect predictor lookups.
system.switch_cpus3.branchPred.indirectHits            8                       # Number of indirect target hits.
system.switch_cpus3.branchPred.indirectMisses            8                       # Number of indirect misses.
system.switch_cpus3.branchPredindirectMispredicted           13                       # Number of mispredicted indirect branches.
system.switch_cpus3.dtb.walker.pwrStateResidencyTicks::UNDEFINED 397114101629                       # Cumulative time (in ticks) in various power states
system.switch_cpus3.itb.walker.pwrStateResidencyTicks::UNDEFINED 397114101629                       # Cumulative time (in ticks) in various power states
system.switch_cpus3.pwrStateResidencyTicks::ON 397114101629                       # Cumulative time (in ticks) in various power states
system.switch_cpus3.numCycles               476727613                       # number of cpu cycles simulated
system.switch_cpus3.numWorkItemsStarted             0                       # number of work items this cpu started
system.switch_cpus3.numWorkItemsCompleted            0                       # number of work items this cpu completed
system.switch_cpus3.committedInsts           99849171                       # Number of instructions committed
system.switch_cpus3.committedOps            196223757                       # Number of ops (including micro ops) committed
system.switch_cpus3.discardedOps             40942678                       # Number of ops (including micro ops) which were discarded before commit
system.switch_cpus3.numFetchSuspends                0                       # Number of times Execute suspended instruction fetching
system.switch_cpus3.cpi                      4.774477                       # CPI: cycles per instruction
system.switch_cpus3.ipc                      0.209447                       # IPC: instructions per cycle
system.switch_cpus3.op_class_0::No_OpClass        97865      0.05%      0.05% # Class of committed instruction
system.switch_cpus3.op_class_0::IntAlu      156477903     79.74%     79.79% # Class of committed instruction
system.switch_cpus3.op_class_0::IntMult        167174      0.09%     79.88% # Class of committed instruction
system.switch_cpus3.op_class_0::IntDiv            232      0.00%     79.88% # Class of committed instruction
system.switch_cpus3.op_class_0::FloatAdd       347146      0.18%     80.06% # Class of committed instruction
system.switch_cpus3.op_class_0::FloatCmp            0      0.00%     80.06% # Class of committed instruction
system.switch_cpus3.op_class_0::FloatCvt            0      0.00%     80.06% # Class of committed instruction
system.switch_cpus3.op_class_0::FloatMult            0      0.00%     80.06% # Class of committed instruction
system.switch_cpus3.op_class_0::FloatMultAcc            0      0.00%     80.06% # Class of committed instruction
system.switch_cpus3.op_class_0::FloatDiv            0      0.00%     80.06% # Class of committed instruction
system.switch_cpus3.op_class_0::FloatMisc            0      0.00%     80.06% # Class of committed instruction
system.switch_cpus3.op_class_0::FloatSqrt            0      0.00%     80.06% # Class of committed instruction
system.switch_cpus3.op_class_0::SimdAdd             0      0.00%     80.06% # Class of committed instruction
system.switch_cpus3.op_class_0::SimdAddAcc            0      0.00%     80.06% # Class of committed instruction
system.switch_cpus3.op_class_0::SimdAlu             0      0.00%     80.06% # Class of committed instruction
system.switch_cpus3.op_class_0::SimdCmp             0      0.00%     80.06% # Class of committed instruction
system.switch_cpus3.op_class_0::SimdCvt             0      0.00%     80.06% # Class of committed instruction
system.switch_cpus3.op_class_0::SimdMisc            0      0.00%     80.06% # Class of committed instruction
system.switch_cpus3.op_class_0::SimdMult            0      0.00%     80.06% # Class of committed instruction
system.switch_cpus3.op_class_0::SimdMultAcc            0      0.00%     80.06% # Class of committed instruction
system.switch_cpus3.op_class_0::SimdShift            0      0.00%     80.06% # Class of committed instruction
system.switch_cpus3.op_class_0::SimdShiftAcc            0      0.00%     80.06% # Class of committed instruction
system.switch_cpus3.op_class_0::SimdSqrt            0      0.00%     80.06% # Class of committed instruction
system.switch_cpus3.op_class_0::SimdFloatAdd            0      0.00%     80.06% # Class of committed instruction
system.switch_cpus3.op_class_0::SimdFloatAlu            0      0.00%     80.06% # Class of committed instruction
system.switch_cpus3.op_class_0::SimdFloatCmp            0      0.00%     80.06% # Class of committed instruction
system.switch_cpus3.op_class_0::SimdFloatCvt            0      0.00%     80.06% # Class of committed instruction
system.switch_cpus3.op_class_0::SimdFloatDiv            0      0.00%     80.06% # Class of committed instruction
system.switch_cpus3.op_class_0::SimdFloatMisc            0      0.00%     80.06% # Class of committed instruction
system.switch_cpus3.op_class_0::SimdFloatMult            0      0.00%     80.06% # Class of committed instruction
system.switch_cpus3.op_class_0::SimdFloatMultAcc            0      0.00%     80.06% # Class of committed instruction
system.switch_cpus3.op_class_0::SimdFloatSqrt            0      0.00%     80.06% # Class of committed instruction
system.switch_cpus3.op_class_0::MemRead      28455769     14.50%     94.56% # Class of committed instruction
system.switch_cpus3.op_class_0::MemWrite     10289763      5.24%     99.80% # Class of committed instruction
system.switch_cpus3.op_class_0::FloatMemRead       214056      0.11%     99.91% # Class of committed instruction
system.switch_cpus3.op_class_0::FloatMemWrite       173849      0.09%    100.00% # Class of committed instruction
system.switch_cpus3.op_class_0::IprAccess            0      0.00%    100.00% # Class of committed instruction
system.switch_cpus3.op_class_0::InstPrefetch            0      0.00%    100.00% # Class of committed instruction
system.switch_cpus3.op_class_0::total       196223757                       # Class of committed instruction
system.switch_cpus3.tickCycles              293734014                       # Number of cycles that the object actually ticked
system.switch_cpus3.idleCycles              182993599                       # Total number of cycles that the object has spent stopped
system.tol2bus.snoop_filter.tot_requests     78212535                       # Total number of requests made to the snoop filter.
system.tol2bus.snoop_filter.hit_single_requests     39106267                       # Number of requests hitting in the snoop filter with a single holder of the requested data.
system.tol2bus.snoop_filter.hit_multi_requests            8                       # Number of requests hitting in the snoop filter with multiple (>1) holders of the requested data.
system.tol2bus.snoop_filter.tot_snoops           2815                       # Total number of snoops made to the snoop filter.
system.tol2bus.snoop_filter.hit_single_snoops         2815                       # Number of snoops hitting in the snoop filter with a single holder of the requested data.
system.tol2bus.snoop_filter.hit_multi_snoops            0                       # Number of snoops hitting in the snoop filter with multiple (>1) holders of the requested data.
system.tol2bus.pwrStateResidencyTicks::UNDEFINED 397114101629                       # Cumulative time (in ticks) in various power states
system.tol2bus.trans_dist::ReadResp          37613743                       # Transaction distribution
system.tol2bus.trans_dist::WritebackDirty      9608106                       # Transaction distribution
system.tol2bus.trans_dist::WritebackClean     22758507                       # Transaction distribution
system.tol2bus.trans_dist::CleanEvict         7999637                       # Transaction distribution
system.tol2bus.trans_dist::ReadExReq          1492524                       # Transaction distribution
system.tol2bus.trans_dist::ReadExResp         1492524                       # Transaction distribution
system.tol2bus.trans_dist::ReadCleanReq      22758509                       # Transaction distribution
system.tol2bus.trans_dist::ReadSharedReq     14855235                       # Transaction distribution
system.tol2bus.pkt_count_system.cpu0.icache.mem_side::system.l2.cpu_side     17089705                       # Packet count per connected master and slave (bytes)
system.tol2bus.pkt_count_system.cpu0.dcache.mem_side::system.l2.cpu_side     12276651                       # Packet count per connected master and slave (bytes)
system.tol2bus.pkt_count_system.cpu1.icache.mem_side::system.l2.cpu_side     17061952                       # Packet count per connected master and slave (bytes)
system.tol2bus.pkt_count_system.cpu1.dcache.mem_side::system.l2.cpu_side     12256539                       # Packet count per connected master and slave (bytes)
system.tol2bus.pkt_count_system.cpu2.icache.mem_side::system.l2.cpu_side     17061930                       # Packet count per connected master and slave (bytes)
system.tol2bus.pkt_count_system.cpu2.dcache.mem_side::system.l2.cpu_side     12253959                       # Packet count per connected master and slave (bytes)
system.tol2bus.pkt_count_system.cpu3.icache.mem_side::system.l2.cpu_side     17061936                       # Packet count per connected master and slave (bytes)
system.tol2bus.pkt_count_system.cpu3.dcache.mem_side::system.l2.cpu_side     12256130                       # Packet count per connected master and slave (bytes)
system.tol2bus.pkt_count::total             117318802                       # Packet count per connected master and slave (bytes)
system.tol2bus.pkt_size_system.cpu0.icache.mem_side::system.l2.cpu_side    729160704                       # Cumulative packet size per connected master and slave (bytes)
system.tol2bus.pkt_size_system.cpu0.dcache.mem_side::system.l2.cpu_side    408026496                       # Cumulative packet size per connected master and slave (bytes)
system.tol2bus.pkt_size_system.cpu1.icache.mem_side::system.l2.cpu_side    727976576                       # Cumulative packet size per connected master and slave (bytes)
system.tol2bus.pkt_size_system.cpu1.dcache.mem_side::system.l2.cpu_side    400045248                       # Cumulative packet size per connected master and slave (bytes)
system.tol2bus.pkt_size_system.cpu2.icache.mem_side::system.l2.cpu_side    727975680                       # Cumulative packet size per connected master and slave (bytes)
system.tol2bus.pkt_size_system.cpu2.dcache.mem_side::system.l2.cpu_side    396566144                       # Cumulative packet size per connected master and slave (bytes)
system.tol2bus.pkt_size_system.cpu3.icache.mem_side::system.l2.cpu_side    727975936                       # Cumulative packet size per connected master and slave (bytes)
system.tol2bus.pkt_size_system.cpu3.dcache.mem_side::system.l2.cpu_side    393747456                       # Cumulative packet size per connected master and slave (bytes)
system.tol2bus.pkt_size::total             4511474240                       # Cumulative packet size per connected master and slave (bytes)
system.tol2bus.snoops                         1259983                       # Total snoops (count)
system.tol2bus.snoopTraffic                  62790080                       # Total snoop traffic (bytes)
system.tol2bus.snoop_fanout::samples         40366251                       # Request fanout histogram
system.tol2bus.snoop_fanout::mean            0.000070                       # Request fanout histogram
system.tol2bus.snoop_fanout::stdev           0.008362                       # Request fanout histogram
system.tol2bus.snoop_fanout::underflows             0      0.00%      0.00% # Request fanout histogram
system.tol2bus.snoop_fanout::0               40363428     99.99%     99.99% # Request fanout histogram
system.tol2bus.snoop_fanout::1                   2823      0.01%    100.00% # Request fanout histogram
system.tol2bus.snoop_fanout::2                      0      0.00%    100.00% # Request fanout histogram
system.tol2bus.snoop_fanout::3                      0      0.00%    100.00% # Request fanout histogram
system.tol2bus.snoop_fanout::4                      0      0.00%    100.00% # Request fanout histogram
system.tol2bus.snoop_fanout::5                      0      0.00%    100.00% # Request fanout histogram
system.tol2bus.snoop_fanout::6                      0      0.00%    100.00% # Request fanout histogram
system.tol2bus.snoop_fanout::7                      0      0.00%    100.00% # Request fanout histogram
system.tol2bus.snoop_fanout::8                      0      0.00%    100.00% # Request fanout histogram
system.tol2bus.snoop_fanout::9                      0      0.00%    100.00% # Request fanout histogram
system.tol2bus.snoop_fanout::10                     0      0.00%    100.00% # Request fanout histogram
system.tol2bus.snoop_fanout::11                     0      0.00%    100.00% # Request fanout histogram
system.tol2bus.snoop_fanout::12                     0      0.00%    100.00% # Request fanout histogram
system.tol2bus.snoop_fanout::13                     0      0.00%    100.00% # Request fanout histogram
system.tol2bus.snoop_fanout::14                     0      0.00%    100.00% # Request fanout histogram
system.tol2bus.snoop_fanout::15                     0      0.00%    100.00% # Request fanout histogram
system.tol2bus.snoop_fanout::16                     0      0.00%    100.00% # Request fanout histogram
system.tol2bus.snoop_fanout::overflows              0      0.00%    100.00% # Request fanout histogram
system.tol2bus.snoop_fanout::min_value              0                       # Request fanout histogram
system.tol2bus.snoop_fanout::max_value              1                       # Request fanout histogram
system.tol2bus.snoop_fanout::total           40366251                       # Request fanout histogram
system.tol2bus.reqLayer0.occupancy       117439314643                       # Layer occupancy (ticks)
system.tol2bus.reqLayer0.utilization             29.6                       # Layer utilization (%)
system.tol2bus.respLayer0.occupancy       14240088565                       # Layer occupancy (ticks)
system.tol2bus.respLayer0.utilization             3.6                       # Layer utilization (%)
system.tol2bus.respLayer1.occupancy       10242120854                       # Layer occupancy (ticks)
system.tol2bus.respLayer1.utilization             2.6                       # Layer utilization (%)
system.tol2bus.respLayer4.occupancy       14217164175                       # Layer occupancy (ticks)
system.tol2bus.respLayer4.utilization             3.6                       # Layer utilization (%)
system.tol2bus.respLayer5.occupancy       10225078850                       # Layer occupancy (ticks)
system.tol2bus.respLayer5.utilization             2.6                       # Layer utilization (%)
system.tol2bus.respLayer8.occupancy       14217131696                       # Layer occupancy (ticks)
system.tol2bus.respLayer8.utilization             3.6                       # Layer utilization (%)
system.tol2bus.respLayer9.occupancy       10223151007                       # Layer occupancy (ticks)
system.tol2bus.respLayer9.utilization             2.6                       # Layer utilization (%)
system.tol2bus.respLayer12.occupancy      14217149171                       # Layer occupancy (ticks)
system.tol2bus.respLayer12.utilization            3.6                       # Layer utilization (%)
system.tol2bus.respLayer13.occupancy      10224515185                       # Layer occupancy (ticks)
system.tol2bus.respLayer13.utilization            2.6                       # Layer utilization (%)

---------- End Simulation Statistics   ----------
