
---------- Begin Simulation Statistics ----------
sim_seconds                                  0.004134                       # Number of seconds simulated
sim_ticks                                  4134199441                       # Number of ticks simulated
final_tick                               5196133362441                       # Number of ticks from beginning of simulation (restored from checkpoints and never reset)
sim_freq                                 1000000000000                       # Frequency of simulated ticks
host_inst_rate                                 529560                       # Simulator instruction rate (inst/s)
host_op_rate                                   745252                       # Simulator op (including micro ops) rate (op/s)
host_tick_rate                              730323517                       # Simulator tick rate (ticks/s)
host_mem_usage                                4018944                       # Number of bytes of host memory used
host_seconds                                     5.66                       # Real time elapsed on the host
sim_insts                                     2997706                       # Number of instructions simulated
sim_ops                                       4218695                       # Number of ops (including micro ops) simulated
system.voltage_domain.voltage                       1                       # Voltage in Volts
system.clk_domain.clock                          1000                       # Clock period in ticks
system.mem_ctrls.pwrStateResidencyTicks::UNDEFINED 5196133362441                       # Cumulative time (in ticks) in various power states
system.mem_ctrls.bytes_read::cpu0.inst             64                       # Number of bytes read from this memory
system.mem_ctrls.bytes_read::cpu0.data            192                       # Number of bytes read from this memory
system.mem_ctrls.bytes_read::cpu1.inst             64                       # Number of bytes read from this memory
system.mem_ctrls.bytes_read::cpu1.data            192                       # Number of bytes read from this memory
system.mem_ctrls.bytes_read::cpu2.inst             64                       # Number of bytes read from this memory
system.mem_ctrls.bytes_read::cpu2.data            192                       # Number of bytes read from this memory
system.mem_ctrls.bytes_read::switch_cpus0.inst        12160                       # Number of bytes read from this memory
system.mem_ctrls.bytes_read::switch_cpus0.data       224000                       # Number of bytes read from this memory
system.mem_ctrls.bytes_read::switch_cpus1.inst        12160                       # Number of bytes read from this memory
system.mem_ctrls.bytes_read::switch_cpus1.data       224128                       # Number of bytes read from this memory
system.mem_ctrls.bytes_read::switch_cpus2.inst        12160                       # Number of bytes read from this memory
system.mem_ctrls.bytes_read::switch_cpus2.data       222528                       # Number of bytes read from this memory
system.mem_ctrls.bytes_read::total             707904                       # Number of bytes read from this memory
system.mem_ctrls.bytes_inst_read::cpu0.inst           64                       # Number of instructions bytes read from this memory
system.mem_ctrls.bytes_inst_read::cpu1.inst           64                       # Number of instructions bytes read from this memory
system.mem_ctrls.bytes_inst_read::cpu2.inst           64                       # Number of instructions bytes read from this memory
system.mem_ctrls.bytes_inst_read::switch_cpus0.inst        12160                       # Number of instructions bytes read from this memory
system.mem_ctrls.bytes_inst_read::switch_cpus1.inst        12160                       # Number of instructions bytes read from this memory
system.mem_ctrls.bytes_inst_read::switch_cpus2.inst        12160                       # Number of instructions bytes read from this memory
system.mem_ctrls.bytes_inst_read::total         36672                       # Number of instructions bytes read from this memory
system.mem_ctrls.bytes_written::writebacks        72128                       # Number of bytes written to this memory
system.mem_ctrls.bytes_written::total           72128                       # Number of bytes written to this memory
system.mem_ctrls.num_reads::cpu0.inst               1                       # Number of read requests responded to by this memory
system.mem_ctrls.num_reads::cpu0.data               3                       # Number of read requests responded to by this memory
system.mem_ctrls.num_reads::cpu1.inst               1                       # Number of read requests responded to by this memory
system.mem_ctrls.num_reads::cpu1.data               3                       # Number of read requests responded to by this memory
system.mem_ctrls.num_reads::cpu2.inst               1                       # Number of read requests responded to by this memory
system.mem_ctrls.num_reads::cpu2.data               3                       # Number of read requests responded to by this memory
system.mem_ctrls.num_reads::switch_cpus0.inst          190                       # Number of read requests responded to by this memory
system.mem_ctrls.num_reads::switch_cpus0.data         3500                       # Number of read requests responded to by this memory
system.mem_ctrls.num_reads::switch_cpus1.inst          190                       # Number of read requests responded to by this memory
system.mem_ctrls.num_reads::switch_cpus1.data         3502                       # Number of read requests responded to by this memory
system.mem_ctrls.num_reads::switch_cpus2.inst          190                       # Number of read requests responded to by this memory
system.mem_ctrls.num_reads::switch_cpus2.data         3477                       # Number of read requests responded to by this memory
system.mem_ctrls.num_reads::total               11061                       # Number of read requests responded to by this memory
system.mem_ctrls.num_writes::writebacks          1127                       # Number of write requests responded to by this memory
system.mem_ctrls.num_writes::total               1127                       # Number of write requests responded to by this memory
system.mem_ctrls.bw_read::cpu0.inst             15481                       # Total read bandwidth from this memory (bytes/s)
system.mem_ctrls.bw_read::cpu0.data             46442                       # Total read bandwidth from this memory (bytes/s)
system.mem_ctrls.bw_read::cpu1.inst             15481                       # Total read bandwidth from this memory (bytes/s)
system.mem_ctrls.bw_read::cpu1.data             46442                       # Total read bandwidth from this memory (bytes/s)
system.mem_ctrls.bw_read::cpu2.inst             15481                       # Total read bandwidth from this memory (bytes/s)
system.mem_ctrls.bw_read::cpu2.data             46442                       # Total read bandwidth from this memory (bytes/s)
system.mem_ctrls.bw_read::switch_cpus0.inst      2941319                       # Total read bandwidth from this memory (bytes/s)
system.mem_ctrls.bw_read::switch_cpus0.data     54182195                       # Total read bandwidth from this memory (bytes/s)
system.mem_ctrls.bw_read::switch_cpus1.inst      2941319                       # Total read bandwidth from this memory (bytes/s)
system.mem_ctrls.bw_read::switch_cpus1.data     54213156                       # Total read bandwidth from this memory (bytes/s)
system.mem_ctrls.bw_read::switch_cpus2.inst      2941319                       # Total read bandwidth from this memory (bytes/s)
system.mem_ctrls.bw_read::switch_cpus2.data     53826141                       # Total read bandwidth from this memory (bytes/s)
system.mem_ctrls.bw_read::total             171231217                       # Total read bandwidth from this memory (bytes/s)
system.mem_ctrls.bw_inst_read::cpu0.inst        15481                       # Instruction read bandwidth from this memory (bytes/s)
system.mem_ctrls.bw_inst_read::cpu1.inst        15481                       # Instruction read bandwidth from this memory (bytes/s)
system.mem_ctrls.bw_inst_read::cpu2.inst        15481                       # Instruction read bandwidth from this memory (bytes/s)
system.mem_ctrls.bw_inst_read::switch_cpus0.inst      2941319                       # Instruction read bandwidth from this memory (bytes/s)
system.mem_ctrls.bw_inst_read::switch_cpus1.inst      2941319                       # Instruction read bandwidth from this memory (bytes/s)
system.mem_ctrls.bw_inst_read::switch_cpus2.inst      2941319                       # Instruction read bandwidth from this memory (bytes/s)
system.mem_ctrls.bw_inst_read::total          8870399                       # Instruction read bandwidth from this memory (bytes/s)
system.mem_ctrls.bw_write::writebacks        17446667                       # Write bandwidth from this memory (bytes/s)
system.mem_ctrls.bw_write::total             17446667                       # Write bandwidth from this memory (bytes/s)
system.mem_ctrls.bw_total::writebacks        17446667                       # Total bandwidth to/from this memory (bytes/s)
system.mem_ctrls.bw_total::cpu0.inst            15481                       # Total bandwidth to/from this memory (bytes/s)
system.mem_ctrls.bw_total::cpu0.data            46442                       # Total bandwidth to/from this memory (bytes/s)
system.mem_ctrls.bw_total::cpu1.inst            15481                       # Total bandwidth to/from this memory (bytes/s)
system.mem_ctrls.bw_total::cpu1.data            46442                       # Total bandwidth to/from this memory (bytes/s)
system.mem_ctrls.bw_total::cpu2.inst            15481                       # Total bandwidth to/from this memory (bytes/s)
system.mem_ctrls.bw_total::cpu2.data            46442                       # Total bandwidth to/from this memory (bytes/s)
system.mem_ctrls.bw_total::switch_cpus0.inst      2941319                       # Total bandwidth to/from this memory (bytes/s)
system.mem_ctrls.bw_total::switch_cpus0.data     54182195                       # Total bandwidth to/from this memory (bytes/s)
system.mem_ctrls.bw_total::switch_cpus1.inst      2941319                       # Total bandwidth to/from this memory (bytes/s)
system.mem_ctrls.bw_total::switch_cpus1.data     54213156                       # Total bandwidth to/from this memory (bytes/s)
system.mem_ctrls.bw_total::switch_cpus2.inst      2941319                       # Total bandwidth to/from this memory (bytes/s)
system.mem_ctrls.bw_total::switch_cpus2.data     53826141                       # Total bandwidth to/from this memory (bytes/s)
system.mem_ctrls.bw_total::total            188677883                       # Total bandwidth to/from this memory (bytes/s)
system.mem_ctrls.readReqs                       11049                       # Number of read requests accepted
system.mem_ctrls.writeReqs                       1127                       # Number of write requests accepted
system.mem_ctrls.readBursts                     11049                       # Number of DRAM read bursts, including those serviced by the write queue
system.mem_ctrls.writeBursts                     1127                       # Number of DRAM write bursts, including those merged in the write queue
system.mem_ctrls.bytesReadDRAM                 707136                       # Total number of bytes read from DRAM
system.mem_ctrls.bytesReadWrQ                       0                       # Total number of bytes read from write queue
system.mem_ctrls.bytesWritten                   70464                       # Total number of bytes written to DRAM
system.mem_ctrls.bytesReadSys                  707136                       # Total read bytes from the system interface side
system.mem_ctrls.bytesWrittenSys                72128                       # Total written bytes from the system interface side
system.mem_ctrls.servicedByWrQ                      0                       # Number of DRAM read bursts serviced by the write queue
system.mem_ctrls.mergedWrBursts                     0                       # Number of DRAM write bursts merged with an existing one
system.mem_ctrls.neitherReadNorWriteReqs            0                       # Number of requests that are neither read nor write
system.mem_ctrls.perBankRdBursts::0               546                       # Per bank write bursts
system.mem_ctrls.perBankRdBursts::1               785                       # Per bank write bursts
system.mem_ctrls.perBankRdBursts::2               724                       # Per bank write bursts
system.mem_ctrls.perBankRdBursts::3               638                       # Per bank write bursts
system.mem_ctrls.perBankRdBursts::4               575                       # Per bank write bursts
system.mem_ctrls.perBankRdBursts::5              1126                       # Per bank write bursts
system.mem_ctrls.perBankRdBursts::6               890                       # Per bank write bursts
system.mem_ctrls.perBankRdBursts::7               650                       # Per bank write bursts
system.mem_ctrls.perBankRdBursts::8               507                       # Per bank write bursts
system.mem_ctrls.perBankRdBursts::9               703                       # Per bank write bursts
system.mem_ctrls.perBankRdBursts::10              777                       # Per bank write bursts
system.mem_ctrls.perBankRdBursts::11              826                       # Per bank write bursts
system.mem_ctrls.perBankRdBursts::12              290                       # Per bank write bursts
system.mem_ctrls.perBankRdBursts::13              699                       # Per bank write bursts
system.mem_ctrls.perBankRdBursts::14              762                       # Per bank write bursts
system.mem_ctrls.perBankRdBursts::15              551                       # Per bank write bursts
system.mem_ctrls.perBankWrBursts::0                24                       # Per bank write bursts
system.mem_ctrls.perBankWrBursts::1                73                       # Per bank write bursts
system.mem_ctrls.perBankWrBursts::2                72                       # Per bank write bursts
system.mem_ctrls.perBankWrBursts::3                46                       # Per bank write bursts
system.mem_ctrls.perBankWrBursts::4                18                       # Per bank write bursts
system.mem_ctrls.perBankWrBursts::5                68                       # Per bank write bursts
system.mem_ctrls.perBankWrBursts::6                69                       # Per bank write bursts
system.mem_ctrls.perBankWrBursts::7                51                       # Per bank write bursts
system.mem_ctrls.perBankWrBursts::8                26                       # Per bank write bursts
system.mem_ctrls.perBankWrBursts::9               108                       # Per bank write bursts
system.mem_ctrls.perBankWrBursts::10              110                       # Per bank write bursts
system.mem_ctrls.perBankWrBursts::11               56                       # Per bank write bursts
system.mem_ctrls.perBankWrBursts::12               36                       # Per bank write bursts
system.mem_ctrls.perBankWrBursts::13              129                       # Per bank write bursts
system.mem_ctrls.perBankWrBursts::14              134                       # Per bank write bursts
system.mem_ctrls.perBankWrBursts::15               81                       # Per bank write bursts
system.mem_ctrls.numRdRetry                         0                       # Number of times read queue was full causing retry
system.mem_ctrls.numWrRetry                         0                       # Number of times write queue was full causing retry
system.mem_ctrls.totGap                    4133930766                       # Total gap between requests
system.mem_ctrls.readPktSize::0                     0                       # Read request sizes (log2)
system.mem_ctrls.readPktSize::1                     0                       # Read request sizes (log2)
system.mem_ctrls.readPktSize::2                     0                       # Read request sizes (log2)
system.mem_ctrls.readPktSize::3                     0                       # Read request sizes (log2)
system.mem_ctrls.readPktSize::4                     0                       # Read request sizes (log2)
system.mem_ctrls.readPktSize::5                     0                       # Read request sizes (log2)
system.mem_ctrls.readPktSize::6                 11049                       # Read request sizes (log2)
system.mem_ctrls.writePktSize::0                    0                       # Write request sizes (log2)
system.mem_ctrls.writePktSize::1                    0                       # Write request sizes (log2)
system.mem_ctrls.writePktSize::2                    0                       # Write request sizes (log2)
system.mem_ctrls.writePktSize::3                    0                       # Write request sizes (log2)
system.mem_ctrls.writePktSize::4                    0                       # Write request sizes (log2)
system.mem_ctrls.writePktSize::5                    0                       # Write request sizes (log2)
system.mem_ctrls.writePktSize::6                 1127                       # Write request sizes (log2)
system.mem_ctrls.rdQLenPdf::0                    9186                       # What read queue length does an incoming req see
system.mem_ctrls.rdQLenPdf::1                    1621                       # What read queue length does an incoming req see
system.mem_ctrls.rdQLenPdf::2                     242                       # What read queue length does an incoming req see
system.mem_ctrls.rdQLenPdf::3                       0                       # What read queue length does an incoming req see
system.mem_ctrls.rdQLenPdf::4                       0                       # What read queue length does an incoming req see
system.mem_ctrls.rdQLenPdf::5                       0                       # What read queue length does an incoming req see
system.mem_ctrls.rdQLenPdf::6                       0                       # What read queue length does an incoming req see
system.mem_ctrls.rdQLenPdf::7                       0                       # What read queue length does an incoming req see
system.mem_ctrls.rdQLenPdf::8                       0                       # What read queue length does an incoming req see
system.mem_ctrls.rdQLenPdf::9                       0                       # What read queue length does an incoming req see
system.mem_ctrls.rdQLenPdf::10                      0                       # What read queue length does an incoming req see
system.mem_ctrls.rdQLenPdf::11                      0                       # What read queue length does an incoming req see
system.mem_ctrls.rdQLenPdf::12                      0                       # What read queue length does an incoming req see
system.mem_ctrls.rdQLenPdf::13                      0                       # What read queue length does an incoming req see
system.mem_ctrls.rdQLenPdf::14                      0                       # What read queue length does an incoming req see
system.mem_ctrls.rdQLenPdf::15                      0                       # What read queue length does an incoming req see
system.mem_ctrls.rdQLenPdf::16                      0                       # What read queue length does an incoming req see
system.mem_ctrls.rdQLenPdf::17                      0                       # What read queue length does an incoming req see
system.mem_ctrls.rdQLenPdf::18                      0                       # What read queue length does an incoming req see
system.mem_ctrls.rdQLenPdf::19                      0                       # What read queue length does an incoming req see
system.mem_ctrls.rdQLenPdf::20                      0                       # What read queue length does an incoming req see
system.mem_ctrls.rdQLenPdf::21                      0                       # What read queue length does an incoming req see
system.mem_ctrls.rdQLenPdf::22                      0                       # What read queue length does an incoming req see
system.mem_ctrls.rdQLenPdf::23                      0                       # What read queue length does an incoming req see
system.mem_ctrls.rdQLenPdf::24                      0                       # What read queue length does an incoming req see
system.mem_ctrls.rdQLenPdf::25                      0                       # What read queue length does an incoming req see
system.mem_ctrls.rdQLenPdf::26                      0                       # What read queue length does an incoming req see
system.mem_ctrls.rdQLenPdf::27                      0                       # What read queue length does an incoming req see
system.mem_ctrls.rdQLenPdf::28                      0                       # What read queue length does an incoming req see
system.mem_ctrls.rdQLenPdf::29                      0                       # What read queue length does an incoming req see
system.mem_ctrls.rdQLenPdf::30                      0                       # What read queue length does an incoming req see
system.mem_ctrls.rdQLenPdf::31                      0                       # What read queue length does an incoming req see
system.mem_ctrls.wrQLenPdf::0                       1                       # What write queue length does an incoming req see
system.mem_ctrls.wrQLenPdf::1                       1                       # What write queue length does an incoming req see
system.mem_ctrls.wrQLenPdf::2                       1                       # What write queue length does an incoming req see
system.mem_ctrls.wrQLenPdf::3                       1                       # What write queue length does an incoming req see
system.mem_ctrls.wrQLenPdf::4                       1                       # What write queue length does an incoming req see
system.mem_ctrls.wrQLenPdf::5                       1                       # What write queue length does an incoming req see
system.mem_ctrls.wrQLenPdf::6                       1                       # What write queue length does an incoming req see
system.mem_ctrls.wrQLenPdf::7                       1                       # What write queue length does an incoming req see
system.mem_ctrls.wrQLenPdf::8                       1                       # What write queue length does an incoming req see
system.mem_ctrls.wrQLenPdf::9                       1                       # What write queue length does an incoming req see
system.mem_ctrls.wrQLenPdf::10                      1                       # What write queue length does an incoming req see
system.mem_ctrls.wrQLenPdf::11                      1                       # What write queue length does an incoming req see
system.mem_ctrls.wrQLenPdf::12                      1                       # What write queue length does an incoming req see
system.mem_ctrls.wrQLenPdf::13                      1                       # What write queue length does an incoming req see
system.mem_ctrls.wrQLenPdf::14                      1                       # What write queue length does an incoming req see
system.mem_ctrls.wrQLenPdf::15                     31                       # What write queue length does an incoming req see
system.mem_ctrls.wrQLenPdf::16                     32                       # What write queue length does an incoming req see
system.mem_ctrls.wrQLenPdf::17                     65                       # What write queue length does an incoming req see
system.mem_ctrls.wrQLenPdf::18                     67                       # What write queue length does an incoming req see
system.mem_ctrls.wrQLenPdf::19                     66                       # What write queue length does an incoming req see
system.mem_ctrls.wrQLenPdf::20                     66                       # What write queue length does an incoming req see
system.mem_ctrls.wrQLenPdf::21                     66                       # What write queue length does an incoming req see
system.mem_ctrls.wrQLenPdf::22                     66                       # What write queue length does an incoming req see
system.mem_ctrls.wrQLenPdf::23                     66                       # What write queue length does an incoming req see
system.mem_ctrls.wrQLenPdf::24                     66                       # What write queue length does an incoming req see
system.mem_ctrls.wrQLenPdf::25                     66                       # What write queue length does an incoming req see
system.mem_ctrls.wrQLenPdf::26                     65                       # What write queue length does an incoming req see
system.mem_ctrls.wrQLenPdf::27                     65                       # What write queue length does an incoming req see
system.mem_ctrls.wrQLenPdf::28                     65                       # What write queue length does an incoming req see
system.mem_ctrls.wrQLenPdf::29                     65                       # What write queue length does an incoming req see
system.mem_ctrls.wrQLenPdf::30                     65                       # What write queue length does an incoming req see
system.mem_ctrls.wrQLenPdf::31                     65                       # What write queue length does an incoming req see
system.mem_ctrls.wrQLenPdf::32                     65                       # What write queue length does an incoming req see
system.mem_ctrls.wrQLenPdf::33                      0                       # What write queue length does an incoming req see
system.mem_ctrls.wrQLenPdf::34                      0                       # What write queue length does an incoming req see
system.mem_ctrls.wrQLenPdf::35                      0                       # What write queue length does an incoming req see
system.mem_ctrls.wrQLenPdf::36                      0                       # What write queue length does an incoming req see
system.mem_ctrls.wrQLenPdf::37                      0                       # What write queue length does an incoming req see
system.mem_ctrls.wrQLenPdf::38                      0                       # What write queue length does an incoming req see
system.mem_ctrls.wrQLenPdf::39                      0                       # What write queue length does an incoming req see
system.mem_ctrls.wrQLenPdf::40                      0                       # What write queue length does an incoming req see
system.mem_ctrls.wrQLenPdf::41                      0                       # What write queue length does an incoming req see
system.mem_ctrls.wrQLenPdf::42                      0                       # What write queue length does an incoming req see
system.mem_ctrls.wrQLenPdf::43                      0                       # What write queue length does an incoming req see
system.mem_ctrls.wrQLenPdf::44                      0                       # What write queue length does an incoming req see
system.mem_ctrls.wrQLenPdf::45                      0                       # What write queue length does an incoming req see
system.mem_ctrls.wrQLenPdf::46                      0                       # What write queue length does an incoming req see
system.mem_ctrls.wrQLenPdf::47                      0                       # What write queue length does an incoming req see
system.mem_ctrls.wrQLenPdf::48                      0                       # What write queue length does an incoming req see
system.mem_ctrls.wrQLenPdf::49                      0                       # What write queue length does an incoming req see
system.mem_ctrls.wrQLenPdf::50                      0                       # What write queue length does an incoming req see
system.mem_ctrls.wrQLenPdf::51                      0                       # What write queue length does an incoming req see
system.mem_ctrls.wrQLenPdf::52                      0                       # What write queue length does an incoming req see
system.mem_ctrls.wrQLenPdf::53                      0                       # What write queue length does an incoming req see
system.mem_ctrls.wrQLenPdf::54                      0                       # What write queue length does an incoming req see
system.mem_ctrls.wrQLenPdf::55                      0                       # What write queue length does an incoming req see
system.mem_ctrls.wrQLenPdf::56                      0                       # What write queue length does an incoming req see
system.mem_ctrls.wrQLenPdf::57                      0                       # What write queue length does an incoming req see
system.mem_ctrls.wrQLenPdf::58                      0                       # What write queue length does an incoming req see
system.mem_ctrls.wrQLenPdf::59                      0                       # What write queue length does an incoming req see
system.mem_ctrls.wrQLenPdf::60                      0                       # What write queue length does an incoming req see
system.mem_ctrls.wrQLenPdf::61                      0                       # What write queue length does an incoming req see
system.mem_ctrls.wrQLenPdf::62                      0                       # What write queue length does an incoming req see
system.mem_ctrls.wrQLenPdf::63                      0                       # What write queue length does an incoming req see
system.mem_ctrls.bytesPerActivate::samples        10453                       # Bytes accessed per row activation
system.mem_ctrls.bytesPerActivate::mean     74.310533                       # Bytes accessed per row activation
system.mem_ctrls.bytesPerActivate::gmean    68.835617                       # Bytes accessed per row activation
system.mem_ctrls.bytesPerActivate::stdev    57.887023                       # Bytes accessed per row activation
system.mem_ctrls.bytesPerActivate::0-127         9727     93.05%     93.05% # Bytes accessed per row activation
system.mem_ctrls.bytesPerActivate::128-255          567      5.42%     98.48% # Bytes accessed per row activation
system.mem_ctrls.bytesPerActivate::256-383          103      0.99%     99.46% # Bytes accessed per row activation
system.mem_ctrls.bytesPerActivate::384-511           13      0.12%     99.59% # Bytes accessed per row activation
system.mem_ctrls.bytesPerActivate::512-639           12      0.11%     99.70% # Bytes accessed per row activation
system.mem_ctrls.bytesPerActivate::640-767            6      0.06%     99.76% # Bytes accessed per row activation
system.mem_ctrls.bytesPerActivate::768-895            6      0.06%     99.82% # Bytes accessed per row activation
system.mem_ctrls.bytesPerActivate::896-1023            3      0.03%     99.85% # Bytes accessed per row activation
system.mem_ctrls.bytesPerActivate::1024-1151           16      0.15%    100.00% # Bytes accessed per row activation
system.mem_ctrls.bytesPerActivate::total        10453                       # Bytes accessed per row activation
system.mem_ctrls.rdPerTurnAround::samples           65                       # Reads before turning the bus around for writes
system.mem_ctrls.rdPerTurnAround::mean     169.107692                       # Reads before turning the bus around for writes
system.mem_ctrls.rdPerTurnAround::gmean    130.466020                       # Reads before turning the bus around for writes
system.mem_ctrls.rdPerTurnAround::stdev    342.585351                       # Reads before turning the bus around for writes
system.mem_ctrls.rdPerTurnAround::0-127            35     53.85%     53.85% # Reads before turning the bus around for writes
system.mem_ctrls.rdPerTurnAround::128-255           29     44.62%     98.46% # Reads before turning the bus around for writes
system.mem_ctrls.rdPerTurnAround::2816-2943            1      1.54%    100.00% # Reads before turning the bus around for writes
system.mem_ctrls.rdPerTurnAround::total            65                       # Reads before turning the bus around for writes
system.mem_ctrls.wrPerTurnAround::samples           65                       # Writes before turning the bus around for reads
system.mem_ctrls.wrPerTurnAround::mean      16.938462                       # Writes before turning the bus around for reads
system.mem_ctrls.wrPerTurnAround::gmean     16.909622                       # Writes before turning the bus around for reads
system.mem_ctrls.wrPerTurnAround::stdev      0.998075                       # Writes before turning the bus around for reads
system.mem_ctrls.wrPerTurnAround::16               34     52.31%     52.31% # Writes before turning the bus around for reads
system.mem_ctrls.wrPerTurnAround::17                1      1.54%     53.85% # Writes before turning the bus around for reads
system.mem_ctrls.wrPerTurnAround::18               30     46.15%    100.00% # Writes before turning the bus around for reads
system.mem_ctrls.wrPerTurnAround::total            65                       # Writes before turning the bus around for reads
system.mem_ctrls.totQLat                    325376620                       # Total ticks spent queuing
system.mem_ctrls.totMemAccLat               532545370                       # Total ticks spent from burst creation until serviced by the DRAM
system.mem_ctrls.totBusLat                   55245000                       # Total ticks spent in databus transfers
system.mem_ctrls.avgQLat                     29448.51                       # Average queueing delay per DRAM burst
system.mem_ctrls.avgBusLat                    5000.00                       # Average bus latency per DRAM burst
system.mem_ctrls.avgMemAccLat                48198.51                       # Average memory access latency per DRAM burst
system.mem_ctrls.avgRdBW                       171.05                       # Average DRAM read bandwidth in MiByte/s
system.mem_ctrls.avgWrBW                        17.04                       # Average achieved write bandwidth in MiByte/s
system.mem_ctrls.avgRdBWSys                    171.05                       # Average system read bandwidth in MiByte/s
system.mem_ctrls.avgWrBWSys                     17.45                       # Average system write bandwidth in MiByte/s
system.mem_ctrls.peakBW                      12800.00                       # Theoretical peak bandwidth in MiByte/s
system.mem_ctrls.busUtil                         1.47                       # Data bus utilization in percentage
system.mem_ctrls.busUtilRead                     1.34                       # Data bus utilization in percentage for reads
system.mem_ctrls.busUtilWrite                    0.13                       # Data bus utilization in percentage for writes
system.mem_ctrls.avgRdQLen                       1.14                       # Average read queue length when enqueuing
system.mem_ctrls.avgWrQLen                      21.66                       # Average write queue length when enqueuing
system.mem_ctrls.readRowHits                      980                       # Number of row buffer hits during reads
system.mem_ctrls.writeRowHits                     704                       # Number of row buffer hits during writes
system.mem_ctrls.readRowHitRate                  8.87                       # Row buffer hit rate for reads
system.mem_ctrls.writeRowHitRate                62.47                       # Row buffer hit rate for writes
system.mem_ctrls.avgGap                     339514.68                       # Average gap between requests
system.mem_ctrls.pageHitRate                    13.83                       # Row buffer hit rate, read and write combined
system.mem_ctrls_0.actEnergy                 40026840                       # Energy for activate commands per rank (pJ)
system.mem_ctrls_0.preEnergy                 21248205                       # Energy for precharge commands per rank (pJ)
system.mem_ctrls_0.readEnergy                42368760                       # Energy for read commands per rank (pJ)
system.mem_ctrls_0.writeEnergy                2197620                       # Energy for write commands per rank (pJ)
system.mem_ctrls_0.refreshEnergy         325759200.000000                       # Energy for refresh commands per rank (pJ)
system.mem_ctrls_0.actBackEnergy            182007840                       # Energy for active background per rank (pJ)
system.mem_ctrls_0.preBackEnergy              6910080                       # Energy for precharge background per rank (pJ)
system.mem_ctrls_0.actPowerDownEnergy      1480190250                       # Energy for active power-down per rank (pJ)
system.mem_ctrls_0.prePowerDownEnergy       180872640                       # Energy for precharge power-down per rank (pJ)
system.mem_ctrls_0.selfRefreshEnergy                0                       # Energy for self refresh per rank (pJ)
system.mem_ctrls_0.totalEnergy             2281581435                       # Total energy per rank (pJ)
system.mem_ctrls_0.averagePower            551.881294                       # Core power per rank (mW)
system.mem_ctrls_0.totalIdleTime           3716967516                       # Total Idle time Per DRAM Rank
system.mem_ctrls_0.memoryStateTime::IDLE      3163000                       # Time in different power states
system.mem_ctrls_0.memoryStateTime::REF     137800000                       # Time in different power states
system.mem_ctrls_0.memoryStateTime::SREF            0                       # Time in different power states
system.mem_ctrls_0.memoryStateTime::PRE_PDN    471172504                       # Time in different power states
system.mem_ctrls_0.memoryStateTime::ACT     276129581                       # Time in different power states
system.mem_ctrls_0.memoryStateTime::ACT_PDN   3245924356                       # Time in different power states
system.mem_ctrls_1.actEnergy                 34700400                       # Energy for activate commands per rank (pJ)
system.mem_ctrls_1.preEnergy                 18420930                       # Energy for precharge commands per rank (pJ)
system.mem_ctrls_1.readEnergy                36521100                       # Energy for read commands per rank (pJ)
system.mem_ctrls_1.writeEnergy                3549600                       # Energy for write commands per rank (pJ)
system.mem_ctrls_1.refreshEnergy         328217760.000000                       # Energy for refresh commands per rank (pJ)
system.mem_ctrls_1.actBackEnergy            171350550                       # Energy for active background per rank (pJ)
system.mem_ctrls_1.preBackEnergy              7227840                       # Energy for precharge background per rank (pJ)
system.mem_ctrls_1.actPowerDownEnergy      1395387930                       # Energy for active power-down per rank (pJ)
system.mem_ctrls_1.prePowerDownEnergy       259991520                       # Energy for precharge power-down per rank (pJ)
system.mem_ctrls_1.selfRefreshEnergy     2832165.000000                       # Energy for self refresh per rank (pJ)
system.mem_ctrls_1.totalEnergy             2258274615                       # Total energy per rank (pJ)
system.mem_ctrls_1.averagePower            546.243713                       # Core power per rank (mW)
system.mem_ctrls_1.totalIdleTime           3737725154                       # Total Idle time Per DRAM Rank
system.mem_ctrls_1.memoryStateTime::IDLE      4157081                       # Time in different power states
system.mem_ctrls_1.memoryStateTime::REF     138870000                       # Time in different power states
system.mem_ctrls_1.memoryStateTime::SREF      2309474                       # Time in different power states
system.mem_ctrls_1.memoryStateTime::PRE_PDN    676934071                       # Time in different power states
system.mem_ctrls_1.memoryStateTime::ACT     251972974                       # Time in different power states
system.mem_ctrls_1.memoryStateTime::ACT_PDN   3059945841                       # Time in different power states
system.pwrStateResidencyTicks::UNDEFINED 5196133362441                       # Cumulative time (in ticks) in various power states
system.cpu_voltage_domain.voltage                   1                       # Voltage in Volts
system.cpu_clk_domain.clock                       833                       # Clock period in ticks
system.cpu0.dtb.walker.pwrStateResidencyTicks::UNDEFINED 5196133362441                       # Cumulative time (in ticks) in various power states
system.cpu0.apic_clk_domain.clock               13328                       # Clock period in ticks
system.cpu0.interrupts.pwrStateResidencyTicks::UNDEFINED 5196133362441                       # Cumulative time (in ticks) in various power states
system.cpu0.itb.walker.pwrStateResidencyTicks::UNDEFINED 5196133362441                       # Cumulative time (in ticks) in various power states
system.cpu0.workload.num_syscalls                   0                       # Number of system calls
system.cpu0.pwrStateResidencyTicks::ON     4134199441                       # Cumulative time (in ticks) in various power states
system.cpu0.numCycles                              11                       # number of cpu cycles simulated
system.cpu0.numWorkItemsStarted                     0                       # number of work items this cpu started
system.cpu0.numWorkItemsCompleted                   0                       # number of work items this cpu completed
system.cpu0.committedInsts                          4                       # Number of instructions committed
system.cpu0.committedOps                            7                       # Number of ops (including micro ops) committed
system.cpu0.num_int_alu_accesses                    6                       # Number of integer alu accesses
system.cpu0.num_fp_alu_accesses                     3                       # Number of float alu accesses
system.cpu0.num_func_calls                          0                       # number of times a function call or return occured
system.cpu0.num_conditional_control_insts            0                       # number of instructions that are conditional controls
system.cpu0.num_int_insts                           6                       # number of integer instructions
system.cpu0.num_fp_insts                            3                       # number of float instructions
system.cpu0.num_int_register_reads                 15                       # number of times the integer registers were read
system.cpu0.num_int_register_writes                 3                       # number of times the integer registers were written
system.cpu0.num_fp_register_reads                   3                       # number of times the floating registers were read
system.cpu0.num_fp_register_writes                  3                       # number of times the floating registers were written
system.cpu0.num_cc_register_writes                  2                       # number of times the CC registers were written
system.cpu0.num_mem_refs                            4                       # number of memory refs
system.cpu0.num_load_insts                          3                       # Number of load instructions
system.cpu0.num_store_insts                         1                       # Number of store instructions
system.cpu0.num_idle_cycles                         0                       # Number of idle cycles
system.cpu0.num_busy_cycles                        11                       # Number of busy cycles
system.cpu0.not_idle_fraction                       1                       # Percentage of non-idle cycles
system.cpu0.idle_fraction                           0                       # Percentage of idle cycles
system.cpu0.op_class::No_OpClass                    0      0.00%      0.00% # Class of executed instruction
system.cpu0.op_class::IntAlu                        2     28.57%     28.57% # Class of executed instruction
system.cpu0.op_class::IntMult                       0      0.00%     28.57% # Class of executed instruction
system.cpu0.op_class::IntDiv                        0      0.00%     28.57% # Class of executed instruction
system.cpu0.op_class::FloatAdd                      1     14.29%     42.86% # Class of executed instruction
system.cpu0.op_class::FloatCmp                      0      0.00%     42.86% # Class of executed instruction
system.cpu0.op_class::FloatCvt                      0      0.00%     42.86% # Class of executed instruction
system.cpu0.op_class::FloatMult                     0      0.00%     42.86% # Class of executed instruction
system.cpu0.op_class::FloatMultAcc                  0      0.00%     42.86% # Class of executed instruction
system.cpu0.op_class::FloatDiv                      0      0.00%     42.86% # Class of executed instruction
system.cpu0.op_class::FloatMisc                     0      0.00%     42.86% # Class of executed instruction
system.cpu0.op_class::FloatSqrt                     0      0.00%     42.86% # Class of executed instruction
system.cpu0.op_class::SimdAdd                       0      0.00%     42.86% # Class of executed instruction
system.cpu0.op_class::SimdAddAcc                    0      0.00%     42.86% # Class of executed instruction
system.cpu0.op_class::SimdAlu                       0      0.00%     42.86% # Class of executed instruction
system.cpu0.op_class::SimdCmp                       0      0.00%     42.86% # Class of executed instruction
system.cpu0.op_class::SimdCvt                       0      0.00%     42.86% # Class of executed instruction
system.cpu0.op_class::SimdMisc                      0      0.00%     42.86% # Class of executed instruction
system.cpu0.op_class::SimdMult                      0      0.00%     42.86% # Class of executed instruction
system.cpu0.op_class::SimdMultAcc                   0      0.00%     42.86% # Class of executed instruction
system.cpu0.op_class::SimdShift                     0      0.00%     42.86% # Class of executed instruction
system.cpu0.op_class::SimdShiftAcc                  0      0.00%     42.86% # Class of executed instruction
system.cpu0.op_class::SimdSqrt                      0      0.00%     42.86% # Class of executed instruction
system.cpu0.op_class::SimdFloatAdd                  0      0.00%     42.86% # Class of executed instruction
system.cpu0.op_class::SimdFloatAlu                  0      0.00%     42.86% # Class of executed instruction
system.cpu0.op_class::SimdFloatCmp                  0      0.00%     42.86% # Class of executed instruction
system.cpu0.op_class::SimdFloatCvt                  0      0.00%     42.86% # Class of executed instruction
system.cpu0.op_class::SimdFloatDiv                  0      0.00%     42.86% # Class of executed instruction
system.cpu0.op_class::SimdFloatMisc                 0      0.00%     42.86% # Class of executed instruction
system.cpu0.op_class::SimdFloatMult                 0      0.00%     42.86% # Class of executed instruction
system.cpu0.op_class::SimdFloatMultAcc              0      0.00%     42.86% # Class of executed instruction
system.cpu0.op_class::SimdFloatSqrt                 0      0.00%     42.86% # Class of executed instruction
system.cpu0.op_class::MemRead                       1     14.29%     57.14% # Class of executed instruction
system.cpu0.op_class::MemWrite                      1     14.29%     71.43% # Class of executed instruction
system.cpu0.op_class::FloatMemRead                  2     28.57%    100.00% # Class of executed instruction
system.cpu0.op_class::FloatMemWrite                 0      0.00%    100.00% # Class of executed instruction
system.cpu0.op_class::IprAccess                     0      0.00%    100.00% # Class of executed instruction
system.cpu0.op_class::InstPrefetch                  0      0.00%    100.00% # Class of executed instruction
system.cpu0.op_class::total                         7                       # Class of executed instruction
system.cpu0.dcache.tags.pwrStateResidencyTicks::UNDEFINED 5196133362441                       # Cumulative time (in ticks) in various power states
system.cpu0.dcache.tags.replacements             4341                       # number of replacements
system.cpu0.dcache.tags.tagsinuse          373.039836                       # Cycle average of tags in use
system.cpu0.dcache.tags.total_refs              55539                       # Total number of references to valid blocks.
system.cpu0.dcache.tags.sampled_refs             4341                       # Sample count of references to valid blocks.
system.cpu0.dcache.tags.avg_refs            12.794057                       # Average number of references to valid blocks.
system.cpu0.dcache.tags.warmup_cycle     5192544969206                       # Cycle when the warmup percentage was hit.
system.cpu0.dcache.tags.occ_blocks::cpu0.data     2.999997                       # Average occupied blocks per requestor
system.cpu0.dcache.tags.occ_blocks::switch_cpus0.data   370.039839                       # Average occupied blocks per requestor
system.cpu0.dcache.tags.occ_percent::cpu0.data     0.007812                       # Average percentage of cache occupancy
system.cpu0.dcache.tags.occ_percent::switch_cpus0.data     0.963645                       # Average percentage of cache occupancy
system.cpu0.dcache.tags.occ_percent::total     0.971458                       # Average percentage of cache occupancy
system.cpu0.dcache.tags.occ_task_id_blocks::1024          384                       # Occupied blocks per task id
system.cpu0.dcache.tags.age_task_id_blocks_1024::0           11                       # Occupied blocks per task id
system.cpu0.dcache.tags.age_task_id_blocks_1024::1           96                       # Occupied blocks per task id
system.cpu0.dcache.tags.age_task_id_blocks_1024::2          251                       # Occupied blocks per task id
system.cpu0.dcache.tags.age_task_id_blocks_1024::3           26                       # Occupied blocks per task id
system.cpu0.dcache.tags.occ_task_id_percent::1024            1                       # Percentage of cache occupancy per task id
system.cpu0.dcache.tags.tag_accesses          3216807                       # Number of tag accesses
system.cpu0.dcache.tags.data_accesses         3216807                       # Number of data accesses
system.cpu0.dcache.pwrStateResidencyTicks::UNDEFINED 5196133362441                       # Cumulative time (in ticks) in various power states
system.cpu0.dcache.ReadReq_hits::switch_cpus0.data       421648                       # number of ReadReq hits
system.cpu0.dcache.ReadReq_hits::total         421648                       # number of ReadReq hits
system.cpu0.dcache.WriteReq_hits::cpu0.data            1                       # number of WriteReq hits
system.cpu0.dcache.WriteReq_hits::switch_cpus0.data       108973                       # number of WriteReq hits
system.cpu0.dcache.WriteReq_hits::total        108974                       # number of WriteReq hits
system.cpu0.dcache.demand_hits::cpu0.data            1                       # number of demand (read+write) hits
system.cpu0.dcache.demand_hits::switch_cpus0.data       530621                       # number of demand (read+write) hits
system.cpu0.dcache.demand_hits::total          530622                       # number of demand (read+write) hits
system.cpu0.dcache.overall_hits::cpu0.data            1                       # number of overall hits
system.cpu0.dcache.overall_hits::switch_cpus0.data       530621                       # number of overall hits
system.cpu0.dcache.overall_hits::total         530622                       # number of overall hits
system.cpu0.dcache.ReadReq_misses::cpu0.data            3                       # number of ReadReq misses
system.cpu0.dcache.ReadReq_misses::switch_cpus0.data         4220                       # number of ReadReq misses
system.cpu0.dcache.ReadReq_misses::total         4223                       # number of ReadReq misses
system.cpu0.dcache.WriteReq_misses::switch_cpus0.data          502                       # number of WriteReq misses
system.cpu0.dcache.WriteReq_misses::total          502                       # number of WriteReq misses
system.cpu0.dcache.demand_misses::cpu0.data            3                       # number of demand (read+write) misses
system.cpu0.dcache.demand_misses::switch_cpus0.data         4722                       # number of demand (read+write) misses
system.cpu0.dcache.demand_misses::total          4725                       # number of demand (read+write) misses
system.cpu0.dcache.overall_misses::cpu0.data            3                       # number of overall misses
system.cpu0.dcache.overall_misses::switch_cpus0.data         4722                       # number of overall misses
system.cpu0.dcache.overall_misses::total         4725                       # number of overall misses
system.cpu0.dcache.ReadReq_miss_latency::switch_cpus0.data    380238677                       # number of ReadReq miss cycles
system.cpu0.dcache.ReadReq_miss_latency::total    380238677                       # number of ReadReq miss cycles
system.cpu0.dcache.WriteReq_miss_latency::switch_cpus0.data     58610713                       # number of WriteReq miss cycles
system.cpu0.dcache.WriteReq_miss_latency::total     58610713                       # number of WriteReq miss cycles
system.cpu0.dcache.demand_miss_latency::switch_cpus0.data    438849390                       # number of demand (read+write) miss cycles
system.cpu0.dcache.demand_miss_latency::total    438849390                       # number of demand (read+write) miss cycles
system.cpu0.dcache.overall_miss_latency::switch_cpus0.data    438849390                       # number of overall miss cycles
system.cpu0.dcache.overall_miss_latency::total    438849390                       # number of overall miss cycles
system.cpu0.dcache.ReadReq_accesses::cpu0.data            3                       # number of ReadReq accesses(hits+misses)
system.cpu0.dcache.ReadReq_accesses::switch_cpus0.data       425868                       # number of ReadReq accesses(hits+misses)
system.cpu0.dcache.ReadReq_accesses::total       425871                       # number of ReadReq accesses(hits+misses)
system.cpu0.dcache.WriteReq_accesses::cpu0.data            1                       # number of WriteReq accesses(hits+misses)
system.cpu0.dcache.WriteReq_accesses::switch_cpus0.data       109475                       # number of WriteReq accesses(hits+misses)
system.cpu0.dcache.WriteReq_accesses::total       109476                       # number of WriteReq accesses(hits+misses)
system.cpu0.dcache.demand_accesses::cpu0.data            4                       # number of demand (read+write) accesses
system.cpu0.dcache.demand_accesses::switch_cpus0.data       535343                       # number of demand (read+write) accesses
system.cpu0.dcache.demand_accesses::total       535347                       # number of demand (read+write) accesses
system.cpu0.dcache.overall_accesses::cpu0.data            4                       # number of overall (read+write) accesses
system.cpu0.dcache.overall_accesses::switch_cpus0.data       535343                       # number of overall (read+write) accesses
system.cpu0.dcache.overall_accesses::total       535347                       # number of overall (read+write) accesses
system.cpu0.dcache.ReadReq_miss_rate::cpu0.data            1                       # miss rate for ReadReq accesses
system.cpu0.dcache.ReadReq_miss_rate::switch_cpus0.data     0.009909                       # miss rate for ReadReq accesses
system.cpu0.dcache.ReadReq_miss_rate::total     0.009916                       # miss rate for ReadReq accesses
system.cpu0.dcache.WriteReq_miss_rate::switch_cpus0.data     0.004586                       # miss rate for WriteReq accesses
system.cpu0.dcache.WriteReq_miss_rate::total     0.004585                       # miss rate for WriteReq accesses
system.cpu0.dcache.demand_miss_rate::cpu0.data     0.750000                       # miss rate for demand accesses
system.cpu0.dcache.demand_miss_rate::switch_cpus0.data     0.008821                       # miss rate for demand accesses
system.cpu0.dcache.demand_miss_rate::total     0.008826                       # miss rate for demand accesses
system.cpu0.dcache.overall_miss_rate::cpu0.data     0.750000                       # miss rate for overall accesses
system.cpu0.dcache.overall_miss_rate::switch_cpus0.data     0.008821                       # miss rate for overall accesses
system.cpu0.dcache.overall_miss_rate::total     0.008826                       # miss rate for overall accesses
system.cpu0.dcache.ReadReq_avg_miss_latency::switch_cpus0.data 90103.951896                       # average ReadReq miss latency
system.cpu0.dcache.ReadReq_avg_miss_latency::total 90039.942458                       # average ReadReq miss latency
system.cpu0.dcache.WriteReq_avg_miss_latency::switch_cpus0.data 116754.408367                       # average WriteReq miss latency
system.cpu0.dcache.WriteReq_avg_miss_latency::total 116754.408367                       # average WriteReq miss latency
system.cpu0.dcache.demand_avg_miss_latency::switch_cpus0.data 92937.185515                       # average overall miss latency
system.cpu0.dcache.demand_avg_miss_latency::total 92878.177778                       # average overall miss latency
system.cpu0.dcache.overall_avg_miss_latency::switch_cpus0.data 92937.185515                       # average overall miss latency
system.cpu0.dcache.overall_avg_miss_latency::total 92878.177778                       # average overall miss latency
system.cpu0.dcache.blocked_cycles::no_mshrs            0                       # number of cycles access was blocked
system.cpu0.dcache.blocked_cycles::no_targets            0                       # number of cycles access was blocked
system.cpu0.dcache.blocked::no_mshrs                0                       # number of cycles access was blocked
system.cpu0.dcache.blocked::no_targets              0                       # number of cycles access was blocked
system.cpu0.dcache.avg_blocked_cycles::no_mshrs          nan                       # average number of cycles each access was blocked
system.cpu0.dcache.avg_blocked_cycles::no_targets          nan                       # average number of cycles each access was blocked
system.cpu0.dcache.writebacks::writebacks          483                       # number of writebacks
system.cpu0.dcache.writebacks::total              483                       # number of writebacks
system.cpu0.dcache.ReadReq_mshr_misses::switch_cpus0.data         4220                       # number of ReadReq MSHR misses
system.cpu0.dcache.ReadReq_mshr_misses::total         4220                       # number of ReadReq MSHR misses
system.cpu0.dcache.WriteReq_mshr_misses::switch_cpus0.data          502                       # number of WriteReq MSHR misses
system.cpu0.dcache.WriteReq_mshr_misses::total          502                       # number of WriteReq MSHR misses
system.cpu0.dcache.demand_mshr_misses::switch_cpus0.data         4722                       # number of demand (read+write) MSHR misses
system.cpu0.dcache.demand_mshr_misses::total         4722                       # number of demand (read+write) MSHR misses
system.cpu0.dcache.overall_mshr_misses::switch_cpus0.data         4722                       # number of overall MSHR misses
system.cpu0.dcache.overall_mshr_misses::total         4722                       # number of overall MSHR misses
system.cpu0.dcache.ReadReq_mshr_miss_latency::switch_cpus0.data    373208157                       # number of ReadReq MSHR miss cycles
system.cpu0.dcache.ReadReq_mshr_miss_latency::total    373208157                       # number of ReadReq MSHR miss cycles
system.cpu0.dcache.WriteReq_mshr_miss_latency::switch_cpus0.data     57774381                       # number of WriteReq MSHR miss cycles
system.cpu0.dcache.WriteReq_mshr_miss_latency::total     57774381                       # number of WriteReq MSHR miss cycles
system.cpu0.dcache.demand_mshr_miss_latency::switch_cpus0.data    430982538                       # number of demand (read+write) MSHR miss cycles
system.cpu0.dcache.demand_mshr_miss_latency::total    430982538                       # number of demand (read+write) MSHR miss cycles
system.cpu0.dcache.overall_mshr_miss_latency::switch_cpus0.data    430982538                       # number of overall MSHR miss cycles
system.cpu0.dcache.overall_mshr_miss_latency::total    430982538                       # number of overall MSHR miss cycles
system.cpu0.dcache.ReadReq_mshr_miss_rate::switch_cpus0.data     0.009909                       # mshr miss rate for ReadReq accesses
system.cpu0.dcache.ReadReq_mshr_miss_rate::total     0.009909                       # mshr miss rate for ReadReq accesses
system.cpu0.dcache.WriteReq_mshr_miss_rate::switch_cpus0.data     0.004586                       # mshr miss rate for WriteReq accesses
system.cpu0.dcache.WriteReq_mshr_miss_rate::total     0.004585                       # mshr miss rate for WriteReq accesses
system.cpu0.dcache.demand_mshr_miss_rate::switch_cpus0.data     0.008821                       # mshr miss rate for demand accesses
system.cpu0.dcache.demand_mshr_miss_rate::total     0.008820                       # mshr miss rate for demand accesses
system.cpu0.dcache.overall_mshr_miss_rate::switch_cpus0.data     0.008821                       # mshr miss rate for overall accesses
system.cpu0.dcache.overall_mshr_miss_rate::total     0.008820                       # mshr miss rate for overall accesses
system.cpu0.dcache.ReadReq_avg_mshr_miss_latency::switch_cpus0.data 88437.951896                       # average ReadReq mshr miss latency
system.cpu0.dcache.ReadReq_avg_mshr_miss_latency::total 88437.951896                       # average ReadReq mshr miss latency
system.cpu0.dcache.WriteReq_avg_mshr_miss_latency::switch_cpus0.data 115088.408367                       # average WriteReq mshr miss latency
system.cpu0.dcache.WriteReq_avg_mshr_miss_latency::total 115088.408367                       # average WriteReq mshr miss latency
system.cpu0.dcache.demand_avg_mshr_miss_latency::switch_cpus0.data 91271.185515                       # average overall mshr miss latency
system.cpu0.dcache.demand_avg_mshr_miss_latency::total 91271.185515                       # average overall mshr miss latency
system.cpu0.dcache.overall_avg_mshr_miss_latency::switch_cpus0.data 91271.185515                       # average overall mshr miss latency
system.cpu0.dcache.overall_avg_mshr_miss_latency::total 91271.185515                       # average overall mshr miss latency
system.cpu0.dtb_walker_cache.tags.pwrStateResidencyTicks::UNDEFINED 5196133362441                       # Cumulative time (in ticks) in various power states
system.cpu0.dtb_walker_cache.tags.replacements            0                       # number of replacements
system.cpu0.dtb_walker_cache.tags.tagsinuse            0                       # Cycle average of tags in use
system.cpu0.dtb_walker_cache.tags.total_refs            0                       # Total number of references to valid blocks.
system.cpu0.dtb_walker_cache.tags.sampled_refs            0                       # Sample count of references to valid blocks.
system.cpu0.dtb_walker_cache.tags.avg_refs          nan                       # Average number of references to valid blocks.
system.cpu0.dtb_walker_cache.tags.warmup_cycle            0                       # Cycle when the warmup percentage was hit.
system.cpu0.dtb_walker_cache.tags.tag_accesses            0                       # Number of tag accesses
system.cpu0.dtb_walker_cache.tags.data_accesses            0                       # Number of data accesses
system.cpu0.dtb_walker_cache.pwrStateResidencyTicks::UNDEFINED 5196133362441                       # Cumulative time (in ticks) in various power states
system.cpu0.dtb_walker_cache.blocked_cycles::no_mshrs            0                       # number of cycles access was blocked
system.cpu0.dtb_walker_cache.blocked_cycles::no_targets            0                       # number of cycles access was blocked
system.cpu0.dtb_walker_cache.blocked::no_mshrs            0                       # number of cycles access was blocked
system.cpu0.dtb_walker_cache.blocked::no_targets            0                       # number of cycles access was blocked
system.cpu0.dtb_walker_cache.avg_blocked_cycles::no_mshrs          nan                       # average number of cycles each access was blocked
system.cpu0.dtb_walker_cache.avg_blocked_cycles::no_targets          nan                       # average number of cycles each access was blocked
system.cpu0.icache.tags.pwrStateResidencyTicks::UNDEFINED 5196133362441                       # Cumulative time (in ticks) in various power states
system.cpu0.icache.tags.replacements                0                       # number of replacements
system.cpu0.icache.tags.tagsinuse          188.263721                       # Cycle average of tags in use
system.cpu0.icache.tags.total_refs                  0                       # Total number of references to valid blocks.
system.cpu0.icache.tags.sampled_refs                0                       # Sample count of references to valid blocks.
system.cpu0.icache.tags.avg_refs                  nan                       # Average number of references to valid blocks.
system.cpu0.icache.tags.warmup_cycle                0                       # Cycle when the warmup percentage was hit.
system.cpu0.icache.tags.occ_blocks::cpu0.inst     1.000000                       # Average occupied blocks per requestor
system.cpu0.icache.tags.occ_blocks::switch_cpus0.inst   187.263721                       # Average occupied blocks per requestor
system.cpu0.icache.tags.occ_percent::cpu0.inst     0.001953                       # Average percentage of cache occupancy
system.cpu0.icache.tags.occ_percent::switch_cpus0.inst     0.365749                       # Average percentage of cache occupancy
system.cpu0.icache.tags.occ_percent::total     0.367703                       # Average percentage of cache occupancy
system.cpu0.icache.tags.occ_task_id_blocks::1024          191                       # Occupied blocks per task id
system.cpu0.icache.tags.age_task_id_blocks_1024::3          191                       # Occupied blocks per task id
system.cpu0.icache.tags.occ_task_id_percent::1024     0.373047                       # Percentage of cache occupancy per task id
system.cpu0.icache.tags.tag_accesses         13407863                       # Number of tag accesses
system.cpu0.icache.tags.data_accesses        13407863                       # Number of data accesses
system.cpu0.icache.pwrStateResidencyTicks::UNDEFINED 5196133362441                       # Cumulative time (in ticks) in various power states
system.cpu0.icache.ReadReq_hits::cpu0.inst            7                       # number of ReadReq hits
system.cpu0.icache.ReadReq_hits::switch_cpus0.inst      1675761                       # number of ReadReq hits
system.cpu0.icache.ReadReq_hits::total        1675768                       # number of ReadReq hits
system.cpu0.icache.demand_hits::cpu0.inst            7                       # number of demand (read+write) hits
system.cpu0.icache.demand_hits::switch_cpus0.inst      1675761                       # number of demand (read+write) hits
system.cpu0.icache.demand_hits::total         1675768                       # number of demand (read+write) hits
system.cpu0.icache.overall_hits::cpu0.inst            7                       # number of overall hits
system.cpu0.icache.overall_hits::switch_cpus0.inst      1675761                       # number of overall hits
system.cpu0.icache.overall_hits::total        1675768                       # number of overall hits
system.cpu0.icache.ReadReq_misses::cpu0.inst            1                       # number of ReadReq misses
system.cpu0.icache.ReadReq_misses::switch_cpus0.inst          190                       # number of ReadReq misses
system.cpu0.icache.ReadReq_misses::total          191                       # number of ReadReq misses
system.cpu0.icache.demand_misses::cpu0.inst            1                       # number of demand (read+write) misses
system.cpu0.icache.demand_misses::switch_cpus0.inst          190                       # number of demand (read+write) misses
system.cpu0.icache.demand_misses::total           191                       # number of demand (read+write) misses
system.cpu0.icache.overall_misses::cpu0.inst            1                       # number of overall misses
system.cpu0.icache.overall_misses::switch_cpus0.inst          190                       # number of overall misses
system.cpu0.icache.overall_misses::total          191                       # number of overall misses
system.cpu0.icache.ReadReq_miss_latency::switch_cpus0.inst     19459713                       # number of ReadReq miss cycles
system.cpu0.icache.ReadReq_miss_latency::total     19459713                       # number of ReadReq miss cycles
system.cpu0.icache.demand_miss_latency::switch_cpus0.inst     19459713                       # number of demand (read+write) miss cycles
system.cpu0.icache.demand_miss_latency::total     19459713                       # number of demand (read+write) miss cycles
system.cpu0.icache.overall_miss_latency::switch_cpus0.inst     19459713                       # number of overall miss cycles
system.cpu0.icache.overall_miss_latency::total     19459713                       # number of overall miss cycles
system.cpu0.icache.ReadReq_accesses::cpu0.inst            8                       # number of ReadReq accesses(hits+misses)
system.cpu0.icache.ReadReq_accesses::switch_cpus0.inst      1675951                       # number of ReadReq accesses(hits+misses)
system.cpu0.icache.ReadReq_accesses::total      1675959                       # number of ReadReq accesses(hits+misses)
system.cpu0.icache.demand_accesses::cpu0.inst            8                       # number of demand (read+write) accesses
system.cpu0.icache.demand_accesses::switch_cpus0.inst      1675951                       # number of demand (read+write) accesses
system.cpu0.icache.demand_accesses::total      1675959                       # number of demand (read+write) accesses
system.cpu0.icache.overall_accesses::cpu0.inst            8                       # number of overall (read+write) accesses
system.cpu0.icache.overall_accesses::switch_cpus0.inst      1675951                       # number of overall (read+write) accesses
system.cpu0.icache.overall_accesses::total      1675959                       # number of overall (read+write) accesses
system.cpu0.icache.ReadReq_miss_rate::cpu0.inst     0.125000                       # miss rate for ReadReq accesses
system.cpu0.icache.ReadReq_miss_rate::switch_cpus0.inst     0.000113                       # miss rate for ReadReq accesses
system.cpu0.icache.ReadReq_miss_rate::total     0.000114                       # miss rate for ReadReq accesses
system.cpu0.icache.demand_miss_rate::cpu0.inst     0.125000                       # miss rate for demand accesses
system.cpu0.icache.demand_miss_rate::switch_cpus0.inst     0.000113                       # miss rate for demand accesses
system.cpu0.icache.demand_miss_rate::total     0.000114                       # miss rate for demand accesses
system.cpu0.icache.overall_miss_rate::cpu0.inst     0.125000                       # miss rate for overall accesses
system.cpu0.icache.overall_miss_rate::switch_cpus0.inst     0.000113                       # miss rate for overall accesses
system.cpu0.icache.overall_miss_rate::total     0.000114                       # miss rate for overall accesses
system.cpu0.icache.ReadReq_avg_miss_latency::switch_cpus0.inst 102419.542105                       # average ReadReq miss latency
system.cpu0.icache.ReadReq_avg_miss_latency::total 101883.314136                       # average ReadReq miss latency
system.cpu0.icache.demand_avg_miss_latency::switch_cpus0.inst 102419.542105                       # average overall miss latency
system.cpu0.icache.demand_avg_miss_latency::total 101883.314136                       # average overall miss latency
system.cpu0.icache.overall_avg_miss_latency::switch_cpus0.inst 102419.542105                       # average overall miss latency
system.cpu0.icache.overall_avg_miss_latency::total 101883.314136                       # average overall miss latency
system.cpu0.icache.blocked_cycles::no_mshrs            0                       # number of cycles access was blocked
system.cpu0.icache.blocked_cycles::no_targets            0                       # number of cycles access was blocked
system.cpu0.icache.blocked::no_mshrs                0                       # number of cycles access was blocked
system.cpu0.icache.blocked::no_targets              0                       # number of cycles access was blocked
system.cpu0.icache.avg_blocked_cycles::no_mshrs          nan                       # average number of cycles each access was blocked
system.cpu0.icache.avg_blocked_cycles::no_targets          nan                       # average number of cycles each access was blocked
system.cpu0.icache.ReadReq_mshr_misses::switch_cpus0.inst          190                       # number of ReadReq MSHR misses
system.cpu0.icache.ReadReq_mshr_misses::total          190                       # number of ReadReq MSHR misses
system.cpu0.icache.demand_mshr_misses::switch_cpus0.inst          190                       # number of demand (read+write) MSHR misses
system.cpu0.icache.demand_mshr_misses::total          190                       # number of demand (read+write) MSHR misses
system.cpu0.icache.overall_mshr_misses::switch_cpus0.inst          190                       # number of overall MSHR misses
system.cpu0.icache.overall_mshr_misses::total          190                       # number of overall MSHR misses
system.cpu0.icache.ReadReq_mshr_miss_latency::switch_cpus0.inst     19143173                       # number of ReadReq MSHR miss cycles
system.cpu0.icache.ReadReq_mshr_miss_latency::total     19143173                       # number of ReadReq MSHR miss cycles
system.cpu0.icache.demand_mshr_miss_latency::switch_cpus0.inst     19143173                       # number of demand (read+write) MSHR miss cycles
system.cpu0.icache.demand_mshr_miss_latency::total     19143173                       # number of demand (read+write) MSHR miss cycles
system.cpu0.icache.overall_mshr_miss_latency::switch_cpus0.inst     19143173                       # number of overall MSHR miss cycles
system.cpu0.icache.overall_mshr_miss_latency::total     19143173                       # number of overall MSHR miss cycles
system.cpu0.icache.ReadReq_mshr_miss_rate::switch_cpus0.inst     0.000113                       # mshr miss rate for ReadReq accesses
system.cpu0.icache.ReadReq_mshr_miss_rate::total     0.000113                       # mshr miss rate for ReadReq accesses
system.cpu0.icache.demand_mshr_miss_rate::switch_cpus0.inst     0.000113                       # mshr miss rate for demand accesses
system.cpu0.icache.demand_mshr_miss_rate::total     0.000113                       # mshr miss rate for demand accesses
system.cpu0.icache.overall_mshr_miss_rate::switch_cpus0.inst     0.000113                       # mshr miss rate for overall accesses
system.cpu0.icache.overall_mshr_miss_rate::total     0.000113                       # mshr miss rate for overall accesses
system.cpu0.icache.ReadReq_avg_mshr_miss_latency::switch_cpus0.inst 100753.542105                       # average ReadReq mshr miss latency
system.cpu0.icache.ReadReq_avg_mshr_miss_latency::total 100753.542105                       # average ReadReq mshr miss latency
system.cpu0.icache.demand_avg_mshr_miss_latency::switch_cpus0.inst 100753.542105                       # average overall mshr miss latency
system.cpu0.icache.demand_avg_mshr_miss_latency::total 100753.542105                       # average overall mshr miss latency
system.cpu0.icache.overall_avg_mshr_miss_latency::switch_cpus0.inst 100753.542105                       # average overall mshr miss latency
system.cpu0.icache.overall_avg_mshr_miss_latency::total 100753.542105                       # average overall mshr miss latency
system.cpu0.itb_walker_cache.tags.pwrStateResidencyTicks::UNDEFINED 5196133362441                       # Cumulative time (in ticks) in various power states
system.cpu0.itb_walker_cache.tags.replacements            0                       # number of replacements
system.cpu0.itb_walker_cache.tags.tagsinuse            0                       # Cycle average of tags in use
system.cpu0.itb_walker_cache.tags.total_refs            0                       # Total number of references to valid blocks.
system.cpu0.itb_walker_cache.tags.sampled_refs            0                       # Sample count of references to valid blocks.
system.cpu0.itb_walker_cache.tags.avg_refs          nan                       # Average number of references to valid blocks.
system.cpu0.itb_walker_cache.tags.warmup_cycle            0                       # Cycle when the warmup percentage was hit.
system.cpu0.itb_walker_cache.tags.tag_accesses            0                       # Number of tag accesses
system.cpu0.itb_walker_cache.tags.data_accesses            0                       # Number of data accesses
system.cpu0.itb_walker_cache.pwrStateResidencyTicks::UNDEFINED 5196133362441                       # Cumulative time (in ticks) in various power states
system.cpu0.itb_walker_cache.blocked_cycles::no_mshrs            0                       # number of cycles access was blocked
system.cpu0.itb_walker_cache.blocked_cycles::no_targets            0                       # number of cycles access was blocked
system.cpu0.itb_walker_cache.blocked::no_mshrs            0                       # number of cycles access was blocked
system.cpu0.itb_walker_cache.blocked::no_targets            0                       # number of cycles access was blocked
system.cpu0.itb_walker_cache.avg_blocked_cycles::no_mshrs          nan                       # average number of cycles each access was blocked
system.cpu0.itb_walker_cache.avg_blocked_cycles::no_targets          nan                       # average number of cycles each access was blocked
system.cpu1.dtb.walker.pwrStateResidencyTicks::UNDEFINED 5196133362441                       # Cumulative time (in ticks) in various power states
system.cpu1.apic_clk_domain.clock               13328                       # Clock period in ticks
system.cpu1.interrupts.pwrStateResidencyTicks::UNDEFINED 5196133362441                       # Cumulative time (in ticks) in various power states
system.cpu1.itb.walker.pwrStateResidencyTicks::UNDEFINED 5196133362441                       # Cumulative time (in ticks) in various power states
system.cpu1.workload.num_syscalls                   0                       # Number of system calls
system.cpu1.pwrStateResidencyTicks::ON     4134199441                       # Cumulative time (in ticks) in various power states
system.cpu1.numCycles                              11                       # number of cpu cycles simulated
system.cpu1.numWorkItemsStarted                     0                       # number of work items this cpu started
system.cpu1.numWorkItemsCompleted                   0                       # number of work items this cpu completed
system.cpu1.committedInsts                          4                       # Number of instructions committed
[...]
system.switch_cpus1.Branches                   328646                       # Number of branches fetched
system.switch_cpus1.op_class::No_OpClass         7672      0.01%      0.01% # Class of executed instruction
system.switch_cpus1.op_class::IntAlu         35030006     24.88%     24.89% # Class of executed instruction
system.switch_cpus1.op_class::IntMult             312      0.00%     24.89% # Class of executed instruction
system.switch_cpus1.op_class::IntDiv              336      0.00%     24.89% # Class of executed instruction
system.switch_cpus1.op_class::FloatAdd       51145933     36.33%     61.21% # Class of executed instruction
system.switch_cpus1.op_class::FloatCmp              0      0.00%     61.21% # Class of executed instruction
system.switch_cpus1.op_class::FloatCvt              0      0.00%     61.21% # Class of executed instruction
system.switch_cpus1.op_class::FloatMult             0      0.00%     61.21% # Class of executed instruction
system.switch_cpus1.op_class::FloatMultAcc            0      0.00%     61.21% # Class of executed instruction
system.switch_cpus1.op_class::FloatDiv              0      0.00%     61.21% # Class of executed instruction
system.switch_cpus1.op_class::FloatMisc             0      0.00%     61.21% # Class of executed instruction
system.switch_cpus1.op_class::FloatSqrt             0      0.00%     61.21% # Class of executed instruction
system.switch_cpus1.op_class::SimdAdd               0      0.00%     61.21% # Class of executed instruction
system.switch_cpus1.op_class::SimdAddAcc            0      0.00%     61.21% # Class of executed instruction
system.switch_cpus1.op_class::SimdAlu               0      0.00%     61.21% # Class of executed instruction
system.switch_cpus1.op_class::SimdCmp               0      0.00%     61.21% # Class of executed instruction
system.switch_cpus1.op_class::SimdCvt               0      0.00%     61.21% # Class of executed instruction
system.switch_cpus1.op_class::SimdMisc              0      0.00%     61.21% # Class of executed instruction
system.switch_cpus1.op_class::SimdMult              0      0.00%     61.21% # Class of executed instruction
system.switch_cpus1.op_class::SimdMultAcc            0      0.00%     61.21% # Class of executed instruction
system.switch_cpus1.op_class::SimdShift             0      0.00%     61.21% # Class of executed instruction
system.switch_cpus1.op_class::SimdShiftAcc            0      0.00%     61.21% # Class of executed instruction
system.switch_cpus1.op_class::SimdSqrt              0      0.00%     61.21% # Class of executed instruction
system.switch_cpus1.op_class::SimdFloatAdd            0      0.00%     61.21% # Class of executed instruction
system.switch_cpus1.op_class::SimdFloatAlu            0      0.00%     61.21% # Class of executed instruction
system.switch_cpus1.op_class::SimdFloatCmp            0      0.00%     61.21% # Class of executed instruction
system.switch_cpus1.op_class::SimdFloatCvt            0      0.00%     61.21% # Class of executed instruction
system.switch_cpus1.op_class::SimdFloatDiv            0      0.00%     61.21% # Class of executed instruction
system.switch_cpus1.op_class::SimdFloatMisc            0      0.00%     61.21% # Class of executed instruction
system.switch_cpus1.op_class::SimdFloatMult            0      0.00%     61.21% # Class of executed instruction
system.switch_cpus1.op_class::SimdFloatMultAcc            0      0.00%     61.21% # Class of executed instruction
system.switch_cpus1.op_class::SimdFloatSqrt            0      0.00%     61.21% # Class of executed instruction
system.switch_cpus1.op_class::MemRead         6066781      4.31%     65.52% # Class of executed instruction
system.switch_cpus1.op_class::MemWrite        1210418      0.86%     66.38% # Class of executed instruction
system.switch_cpus1.op_class::FloatMemRead     37029755     26.30%     92.68% # Class of executed instruction
system.switch_cpus1.op_class::FloatMemWrite     10299390      7.32%    100.00% # Class of executed instruction
system.switch_cpus1.op_class::IprAccess             0      0.00%    100.00% # Class of executed instruction
system.switch_cpus1.op_class::InstPrefetch            0      0.00%    100.00% # Class of executed instruction
system.switch_cpus1.op_class::total         140790603                       # Class of executed instruction
system.switch_cpus2.dtb.walker.pwrStateResidencyTicks::UNDEFINED 440015899876                       # Cumulative time (in ticks) in various power states
system.switch_cpus2.itb.walker.pwrStateResidencyTicks::UNDEFINED 440015899876                       # Cumulative time (in ticks) in various power states
system.switch_cpus2.pwrStateResidencyTicks::ON 440015899876                       # Cumulative time (in ticks) in various power states
system.switch_cpus2.numCycles               528230272                       # number of cpu cycles simulated
system.switch_cpus2.numWorkItemsStarted             0                       # number of work items this cpu started
system.switch_cpus2.numWorkItemsCompleted            0                       # number of work items this cpu completed
system.switch_cpus2.committedInsts          100000920                       # Number of instructions committed
system.switch_cpus2.committedOps            140830057                       # Number of ops (including micro ops) committed
system.switch_cpus2.num_int_alu_accesses     62528360                       # Number of integer alu accesses
system.switch_cpus2.num_fp_alu_accesses     125641763                       # Number of float alu accesses
system.switch_cpus2.num_func_calls              39668                       # number of times a function call or return occured
system.switch_cpus2.num_conditional_control_insts       276243                       # number of instructions that are conditional controls
system.switch_cpus2.num_int_insts            62528360                       # number of integer instructions
system.switch_cpus2.num_fp_insts            125641763                       # number of float instructions
system.switch_cpus2.num_int_register_reads    174305118                       # number of times the integer registers were read
system.switch_cpus2.num_int_register_writes     13649956                       # number of times the integer registers were written
system.switch_cpus2.num_fp_register_reads    216109550                       # number of times the floating registers were read
system.switch_cpus2.num_fp_register_writes    115334358                       # number of times the floating registers were written
system.switch_cpus2.num_cc_register_reads      1671594                       # number of times the CC registers were read
system.switch_cpus2.num_cc_register_writes      4451830                       # number of times the CC registers were written
system.switch_cpus2.num_mem_refs             54621347                       # number of memory refs
system.switch_cpus2.num_load_insts           43108498                       # Number of load instructions
system.switch_cpus2.num_store_insts          11512849                       # Number of store instructions
system.switch_cpus2.num_idle_cycles                 0                       # Number of idle cycles
system.switch_cpus2.num_busy_cycles         528230272                       # Number of busy cycles
system.switch_cpus2.not_idle_fraction               1                       # Percentage of non-idle cycles
system.switch_cpus2.idle_fraction                   0                       # Percentage of idle cycles
system.switch_cpus2.Branches                   328664                       # Number of branches fetched
system.switch_cpus2.op_class::No_OpClass         7672      0.01%      0.01% # Class of executed instruction
system.switch_cpus2.op_class::IntAlu         35039719     24.88%     24.89% # Class of executed instruction
system.switch_cpus2.op_class::IntMult             312      0.00%     24.89% # Class of executed instruction
system.switch_cpus2.op_class::IntDiv              336      0.00%     24.89% # Class of executed instruction
system.switch_cpus2.op_class::FloatAdd       51160671     36.33%     61.21% # Class of executed instruction
system.switch_cpus2.op_class::FloatCmp              0      0.00%     61.21% # Class of executed instruction
system.switch_cpus2.op_class::FloatCvt              0      0.00%     61.21% # Class of executed instruction
system.switch_cpus2.op_class::FloatMult             0      0.00%     61.21% # Class of executed instruction
system.switch_cpus2.op_class::FloatMultAcc            0      0.00%     61.21% # Class of executed instruction
system.switch_cpus2.op_class::FloatDiv              0      0.00%     61.21% # Class of executed instruction
system.switch_cpus2.op_class::FloatMisc             0      0.00%     61.21% # Class of executed instruction
system.switch_cpus2.op_class::FloatSqrt             0      0.00%     61.21% # Class of executed instruction
system.switch_cpus2.op_class::SimdAdd               0      0.00%     61.21% # Class of executed instruction
system.switch_cpus2.op_class::SimdAddAcc            0      0.00%     61.21% # Class of executed instruction
system.switch_cpus2.op_class::SimdAlu               0      0.00%     61.21% # Class of executed instruction
system.switch_cpus2.op_class::SimdCmp               0      0.00%     61.21% # Class of executed instruction
system.switch_cpus2.op_class::SimdCvt               0      0.00%     61.21% # Class of executed instruction
system.switch_cpus2.op_class::SimdMisc              0      0.00%     61.21% # Class of executed instruction
system.switch_cpus2.op_class::SimdMult              0      0.00%     61.21% # Class of executed instruction
system.switch_cpus2.op_class::SimdMultAcc            0      0.00%     61.21% # Class of executed instruction
system.switch_cpus2.op_class::SimdShift             0      0.00%     61.21% # Class of executed instruction
system.switch_cpus2.op_class::SimdShiftAcc            0      0.00%     61.21% # Class of executed instruction
system.switch_cpus2.op_class::SimdSqrt              0      0.00%     61.21% # Class of executed instruction
system.switch_cpus2.op_class::SimdFloatAdd            0      0.00%     61.21% # Class of executed instruction
system.switch_cpus2.op_class::SimdFloatAlu            0      0.00%     61.21% # Class of executed instruction
system.switch_cpus2.op_class::SimdFloatCmp            0      0.00%     61.21% # Class of executed instruction
system.switch_cpus2.op_class::SimdFloatCvt            0      0.00%     61.21% # Class of executed instruction
system.switch_cpus2.op_class::SimdFloatDiv            0      0.00%     61.21% # Class of executed instruction
system.switch_cpus2.op_class::SimdFloatMisc            0      0.00%     61.21% # Class of executed instruction
system.switch_cpus2.op_class::SimdFloatMult            0      0.00%     61.21% # Class of executed instruction
system.switch_cpus2.op_class::SimdFloatMultAcc            0      0.00%     61.21% # Class of executed instruction
system.switch_cpus2.op_class::SimdFloatSqrt            0      0.00%     61.21% # Class of executed instruction
system.switch_cpus2.op_class::MemRead         6068133      4.31%     65.52% # Class of executed instruction
system.switch_cpus2.op_class::MemWrite        1210724      0.86%     66.38% # Class of executed instruction
system.switch_cpus2.op_class::FloatMemRead     37040365     26.30%     92.68% # Class of executed instruction
system.switch_cpus2.op_class::FloatMemWrite     10302125      7.32%    100.00% # Class of executed instruction
system.switch_cpus2.op_class::IprAccess             0      0.00%    100.00% # Class of executed instruction
system.switch_cpus2.op_class::InstPrefetch            0      0.00%    100.00% # Class of executed instruction
system.switch_cpus2.op_class::total         140830057                       # Class of executed instruction
system.tol2bus.snoop_filter.tot_requests      4236550                       # Total number of requests made to the snoop filter.
system.tol2bus.snoop_filter.hit_single_requests      2117793                       # Number of requests hitting in the snoop filter with a single holder of the requested data.
system.tol2bus.snoop_filter.hit_multi_requests            0                       # Number of requests hitting in the snoop filter with multiple (>1) holders of the requested data.
system.tol2bus.snoop_filter.tot_snoops         247766                       # Total number of snoops made to the snoop filter.
system.tol2bus.snoop_filter.hit_single_snoops       247766                       # Number of snoops hitting in the snoop filter with a single holder of the requested data.
system.tol2bus.snoop_filter.hit_multi_snoops            0                       # Number of snoops hitting in the snoop filter with multiple (>1) holders of the requested data.
system.tol2bus.pwrStateResidencyTicks::UNDEFINED 440015899876                       # Cumulative time (in ticks) in various power states
system.tol2bus.trans_dist::ReadResp           1614168                       # Transaction distribution
system.tol2bus.trans_dist::WritebackDirty      1041844                       # Transaction distribution
system.tol2bus.trans_dist::WritebackClean         3873                       # Transaction distribution
system.tol2bus.trans_dist::CleanEvict         2842623                       # Transaction distribution
system.tol2bus.trans_dist::ReadExReq           504588                       # Transaction distribution
system.tol2bus.trans_dist::ReadExResp          504588                       # Transaction distribution
system.tol2bus.trans_dist::ReadCleanReq          4836                       # Transaction distribution
system.tol2bus.trans_dist::ReadSharedReq      1609333                       # Transaction distribution
system.tol2bus.pkt_count_system.cpu0.icache.mem_side::system.l2.cpu_side         4515                       # Packet count per connected master and slave (bytes)
system.tol2bus.pkt_count_system.cpu0.dcache.mem_side::system.l2.cpu_side      2114034                       # Packet count per connected master and slave (bytes)
system.tol2bus.pkt_count_system.cpu1.icache.mem_side::system.l2.cpu_side         4515                       # Packet count per connected master and slave (bytes)
system.tol2bus.pkt_count_system.cpu1.dcache.mem_side::system.l2.cpu_side      2113668                       # Packet count per connected master and slave (bytes)
system.tol2bus.pkt_count_system.cpu2.icache.mem_side::system.l2.cpu_side         4515                       # Packet count per connected master and slave (bytes)
system.tol2bus.pkt_count_system.cpu2.dcache.mem_side::system.l2.cpu_side      2114059                       # Packet count per connected master and slave (bytes)
system.tol2bus.pkt_count::total               6355306                       # Packet count per connected master and slave (bytes)
system.tol2bus.pkt_size_system.cpu0.icache.mem_side::system.l2.cpu_side       185792                       # Cumulative packet size per connected master and slave (bytes)
system.tol2bus.pkt_size_system.cpu0.dcache.mem_side::system.l2.cpu_side     56586112                       # Cumulative packet size per connected master and slave (bytes)
system.tol2bus.pkt_size_system.cpu1.icache.mem_side::system.l2.cpu_side       185792                       # Cumulative packet size per connected master and slave (bytes)
system.tol2bus.pkt_size_system.cpu1.dcache.mem_side::system.l2.cpu_side     56584512                       # Cumulative packet size per connected master and slave (bytes)
system.tol2bus.pkt_size_system.cpu2.icache.mem_side::system.l2.cpu_side       185792                       # Cumulative packet size per connected master and slave (bytes)
system.tol2bus.pkt_size_system.cpu2.dcache.mem_side::system.l2.cpu_side     56586368                       # Cumulative packet size per connected master and slave (bytes)
system.tol2bus.pkt_size::total              170314368                       # Cumulative packet size per connected master and slave (bytes)
system.tol2bus.snoops                         1770547                       # Total snoops (count)
system.tol2bus.snoopTraffic                  32211904                       # Total snoop traffic (bytes)
system.tol2bus.snoop_fanout::samples          3889304                       # Request fanout histogram
system.tol2bus.snoop_fanout::mean            0.063704                       # Request fanout histogram
system.tol2bus.snoop_fanout::stdev           0.244226                       # Request fanout histogram
system.tol2bus.snoop_fanout::underflows             0      0.00%      0.00% # Request fanout histogram
system.tol2bus.snoop_fanout::0                3641538     93.63%     93.63% # Request fanout histogram
system.tol2bus.snoop_fanout::1                 247766      6.37%    100.00% # Request fanout histogram
system.tol2bus.snoop_fanout::2                      0      0.00%    100.00% # Request fanout histogram
system.tol2bus.snoop_fanout::3                      0      0.00%    100.00% # Request fanout histogram
system.tol2bus.snoop_fanout::4                      0      0.00%    100.00% # Request fanout histogram
system.tol2bus.snoop_fanout::5                      0      0.00%    100.00% # Request fanout histogram
system.tol2bus.snoop_fanout::6                      0      0.00%    100.00% # Request fanout histogram
system.tol2bus.snoop_fanout::7                      0      0.00%    100.00% # Request fanout histogram
system.tol2bus.snoop_fanout::8                      0      0.00%    100.00% # Request fanout histogram
system.tol2bus.snoop_fanout::9                      0      0.00%    100.00% # Request fanout histogram
system.tol2bus.snoop_fanout::10                     0      0.00%    100.00% # Request fanout histogram
system.tol2bus.snoop_fanout::11                     0      0.00%    100.00% # Request fanout histogram
system.tol2bus.snoop_fanout::12                     0      0.00%    100.00% # Request fanout histogram
system.tol2bus.snoop_fanout::overflows              0      0.00%    100.00% # Request fanout histogram
system.tol2bus.snoop_fanout::min_value              0                       # Request fanout histogram
system.tol2bus.snoop_fanout::max_value              1                       # Request fanout histogram
system.tol2bus.snoop_fanout::total            3889304                       # Request fanout histogram
system.tol2bus.reqLayer0.occupancy         4432694546                       # Layer occupancy (ticks)
system.tol2bus.reqLayer0.utilization              1.0                       # Layer utilization (%)
system.tol2bus.respLayer0.occupancy           4028388                       # Layer occupancy (ticks)
system.tol2bus.respLayer0.utilization             0.0                       # Layer utilization (%)
system.tol2bus.respLayer1.occupancy        1761153394                       # Layer occupancy (ticks)
system.tol2bus.respLayer1.utilization             0.4                       # Layer utilization (%)
system.tol2bus.respLayer4.occupancy           4030052                       # Layer occupancy (ticks)
system.tol2bus.respLayer4.utilization             0.0                       # Layer utilization (%)
system.tol2bus.respLayer5.occupancy        1760858500                       # Layer occupancy (ticks)
system.tol2bus.respLayer5.utilization             0.4                       # Layer utilization (%)
system.tol2bus.respLayer8.occupancy           4028388                       # Layer occupancy (ticks)
system.tol2bus.respLayer8.utilization             0.0                       # Layer utilization (%)
system.tol2bus.respLayer9.occupancy        1761182538                       # Layer occupancy (ticks)
system.tol2bus.respLayer9.utilization             0.4                       # Layer utilization (%)

---------- End Simulation Statistics   ----------
