gem5 Simulator System.  http://gem5.org
gem5 is copyrighted software; use the --copyright option for details.

gem5 compiled Nov 23 2016 21:20:46
gem5 started Nov 24 2016 15:27:45
gem5 executing on supreme.cerc.utexas.edu, pid 25238
command line: build/X86/gem5.fast -r --outdir=output/multiCore1mb/run1 configs/example/multiCore-1mb.py --cpu-type=minor --caches --l2cache '--cmd=../../../rrip/cpu2006/benchspec/CPU2006/400.perlbench/exe/perlbench_base.amd64-m64-gcc42-nn;../../../rrip/cpu2006/benchspec/CPU2006/462.libquantum/exe/libquantum_base.amd64-m64-gcc42-nn;../../../rrip/cpu2006/benchspec/CPU2006/473.astar/exe/astar_base.amd64-m64-gcc42-nn;../../../rrip/cpu2006/benchspec/CPU2006/483.xalancbmk/exe/Xalan_base.amd64-m64-gcc42-nn' '--options=-I../../../rrip/cpu2006/benchspec/CPU2006/400.perlbench/run/run_base_test_amd64-m64-gcc42-nn.0000 -I../../../rrip/cpu2006/benchspec/CPU2006/400.perlbench/run/run_base_test_amd64-m64-gcc42-nn.0000/lib ../../../rrip/cpu2006/benchspec/CPU2006/400.perlbench/run/run_base_test_amd64-m64-gcc42-nn.0000/attrs.pl;33 5;../../../rrip/cpu2006/benchspec/CPU2006/473.astar/data/test/input/lake.cfg;-v ../../../rrip/cpu2006/benchspec/CPU2006/483.xalancbmk/data/test/input/test.xml ../../../rrip/cpu2006/benchspec/CPU2006/483.xalancbmk/data/test/input/xalanc.xsl' '--output=output/multiCore1mb/run1/attrs.out;output/multiCore1mb/run1/lq.out;output/multiCore1mb/run1/lake.out;output/multiCore1mb/run1/xal.out' --num-cpus=4 --mem-size=1GB

Global frequency set at 1000000000000 ticks per second
warn: DRAM device capacity (8192 Mbytes) does not match the address range assigned (1024 Mbytes)
0: system.remote_gdb.listener: listening for remote gdb on port 7027
0: system.remote_gdb.listener: listening for remote gdb on port 7029
0: system.remote_gdb.listener: listening for remote gdb on port 7030
0: system.remote_gdb.listener: listening for remote gdb on port 7032
warn: ClockedObject: More than one power state change request encountered within the same simulation tick
warn: ClockedObject: More than one power state change request encountered within the same simulation tick
warn: ClockedObject: More than one power state change request encountered within the same simulation tick
warn: ClockedObject: More than one power state change request encountered within the same simulation tick
**** REAL SIMULATION ****
info: Entering event queue @ 0.  Starting simulation...
info: Increasing stack size by one page.
info: Increasing stack size by one page.
info: Increasing stack size by one page.
info: Increasing stack size by one page.
info: Increasing stack size by one page.
info: Increasing stack size by one page.
info: Increasing stack size by one page.
info: Increasing stack size by one page.
info: Increasing stack size by one page.
info: Increasing stack size by one page.
info: Increasing stack size by one page.
info: Increasing stack size by one page.
info: Increasing stack size by one page.
info: Increasing stack size by one page.
info: Increasing stack size by one page.
info: Increasing stack size by one page.
info: Increasing stack size by one page.
info: Increasing stack size by one page.
info: Increasing stack size by one page.
info: Increasing stack size by one page.
info: Increasing stack size by one page.
info: Increasing stack size by one page.
info: Increasing stack size by one page.
info: Increasing stack size by one page.
info: Increasing stack size by one page.
info: Increasing stack size by one page.
info: Increasing stack size by one page.
info: Increasing stack size by one page.
info: Increasing stack size by one page.
info: Increasing stack size by one page.
info: Increasing stack size by one page.
info: Increasing stack size by one page.
info: Increasing stack size by one page.
info: Increasing stack size by one page.
info: Increasing stack size by one page.
info: Increasing stack size by one page.
info: Increasing stack size by one page.
info: Increasing stack size by one page.
info: Increasing stack size by one page.
info: Increasing stack size by one page.
info: Increasing stack size by one page.
info: Increasing stack size by one page.
info: Increasing stack size by one page.
info: Increasing stack size by one page.
info: Increasing stack size by one page.
info: Increasing stack size by one page.
info: Increasing stack size by one page.
info: Increasing stack size by one page.
info: Increasing stack size by one page.
info: Increasing stack size by one page.
info: Increasing stack size by one page.
info: Increasing stack size by one page.
info: Increasing stack size by one page.
info: Increasing stack size by one page.
info: Increasing stack size by one page.
info: Increasing stack size by one page.
info: Increasing stack size by one page.
info: Increasing stack size by one page.
info: Increasing stack size by one page.
info: Increasing stack size by one page.
info: Increasing stack size by one page.
info: Increasing stack size by one page.
info: Increasing stack size by one page.
info: Increasing stack size by one page.
info: Increasing stack size by one page.
info: Increasing stack size by one page.
info: Increasing stack size by one page.
info: Increasing stack size by one page.
info: Increasing stack size by one page.
info: Increasing stack size by one page.
info: Increasing stack size by one page.
info: Increasing stack size by one page.
info: Increasing stack size by one page.
info: Increasing stack size by one page.
info: Increasing stack size by one page.
info: Increasing stack size by one page.
info: Increasing stack size by one page.
info: Increasing stack size by one page.
info: Increasing stack size by one page.
info: Increasing stack size by one page.
info: Increasing stack size by one page.
info: Increasing stack size by one page.
info: Increasing stack size by one page.
info: Increasing stack size by one page.
info: Increasing stack size by one page.
info: Increasing stack size by one page.
info: Increasing stack size by one page.
info: Increasing stack size by one page.
info: Increasing stack size by one page.
info: Increasing stack size by one page.
info: Increasing stack size by one page.
info: Increasing stack size by one page.
info: Increasing stack size by one page.
info: Increasing stack size by one page.
info: Increasing stack size by one page.
info: Increasing stack size by one page.
info: Increasing stack size by one page.
info: Increasing stack size by one page.
info: Increasing stack size by one page.
info: Increasing stack size by one page.
info: Increasing stack size by one page.
info: Increasing stack size by one page.
info: Increasing stack size by one page.
info: Increasing stack size by one page.
info: Increasing stack size by one page.
info: Increasing stack size by one page.
info: Increasing stack size by one page.
info: Increasing stack size by one page.
info: Increasing stack size by one page.
info: Increasing stack size by one page.
Exiting @ tick 56818658524467 because target called exit()
