
---------- Begin Simulation Statistics ----------
sim_seconds                                 56.818659                       # Number of seconds simulated
sim_ticks                                56818658524467                       # Number of ticks simulated
final_tick                               56818658524467                       # Number of ticks from beginning of simulation (restored from checkpoints and never reset)
sim_freq                                 1000000000000                       # Frequency of simulated ticks
host_inst_rate                                 102909                       # Simulator instruction rate (inst/s)
host_op_rate                                   184820                       # Simulator op (including micro ops) rate (op/s)
host_tick_rate                              242264747                       # Simulator tick rate (ticks/s)
host_mem_usage                                1591484                       # Number of bytes of host memory used
host_seconds                                234531.27                       # Real time elapsed on the host
sim_insts                                 24135486291                       # Number of instructions simulated
sim_ops                                   43345986122                       # Number of ops (including micro ops) simulated
system.voltage_domain.voltage                       1                       # Voltage in Volts
system.clk_domain.clock                          1000                       # Clock period in ticks
system.mem_ctrls.pwrStateResidencyTicks::UNDEFINED 56818658524467                       # Cumulative time (in ticks) in various power states
system.mem_ctrls.bytes_read::cpu0.inst         745728                       # Number of bytes read from this memory
system.mem_ctrls.bytes_read::cpu0.data        1129024                       # Number of bytes read from this memory
system.mem_ctrls.bytes_read::cpu1.inst          65472                       # Number of bytes read from this memory
system.mem_ctrls.bytes_read::cpu1.data         155584                       # Number of bytes read from this memory
system.mem_ctrls.bytes_read::cpu2.inst         132416                       # Number of bytes read from this memory
system.mem_ctrls.bytes_read::cpu2.data      224946240                       # Number of bytes read from this memory
system.mem_ctrls.bytes_read::cpu3.inst        2525056                       # Number of bytes read from this memory
system.mem_ctrls.bytes_read::cpu3.data       41304320                       # Number of bytes read from this memory
system.mem_ctrls.bytes_read::total          271003840                       # Number of bytes read from this memory
system.mem_ctrls.bytes_inst_read::cpu0.inst       745728                       # Number of instructions bytes read from this memory
system.mem_ctrls.bytes_inst_read::cpu1.inst        65472                       # Number of instructions bytes read from this memory
system.mem_ctrls.bytes_inst_read::cpu2.inst       132416                       # Number of instructions bytes read from this memory
system.mem_ctrls.bytes_inst_read::cpu3.inst      2525056                       # Number of instructions bytes read from this memory
system.mem_ctrls.bytes_inst_read::total       3468672                       # Number of instructions bytes read from this memory
system.mem_ctrls.bytes_written::writebacks    227050880                       # Number of bytes written to this memory
system.mem_ctrls.bytes_written::total       227050880                       # Number of bytes written to this memory
system.mem_ctrls.num_reads::cpu0.inst           11652                       # Number of read requests responded to by this memory
system.mem_ctrls.num_reads::cpu0.data           17641                       # Number of read requests responded to by this memory
system.mem_ctrls.num_reads::cpu1.inst            1023                       # Number of read requests responded to by this memory
system.mem_ctrls.num_reads::cpu1.data            2431                       # Number of read requests responded to by this memory
system.mem_ctrls.num_reads::cpu2.inst            2069                       # Number of read requests responded to by this memory
system.mem_ctrls.num_reads::cpu2.data         3514785                       # Number of read requests responded to by this memory
system.mem_ctrls.num_reads::cpu3.inst           39454                       # Number of read requests responded to by this memory
system.mem_ctrls.num_reads::cpu3.data          645380                       # Number of read requests responded to by this memory
system.mem_ctrls.num_reads::total             4234435                       # Number of read requests responded to by this memory
system.mem_ctrls.num_writes::writebacks       3547670                       # Number of write requests responded to by this memory
system.mem_ctrls.num_writes::total            3547670                       # Number of write requests responded to by this memory
system.mem_ctrls.bw_read::cpu0.inst             13125                       # Total read bandwidth from this memory (bytes/s)
system.mem_ctrls.bw_read::cpu0.data             19871                       # Total read bandwidth from this memory (bytes/s)
system.mem_ctrls.bw_read::cpu1.inst              1152                       # Total read bandwidth from this memory (bytes/s)
system.mem_ctrls.bw_read::cpu1.data              2738                       # Total read bandwidth from this memory (bytes/s)
system.mem_ctrls.bw_read::cpu2.inst              2331                       # Total read bandwidth from this memory (bytes/s)
system.mem_ctrls.bw_read::cpu2.data           3959021                       # Total read bandwidth from this memory (bytes/s)
system.mem_ctrls.bw_read::cpu3.inst             44441                       # Total read bandwidth from this memory (bytes/s)
system.mem_ctrls.bw_read::cpu3.data            726950                       # Total read bandwidth from this memory (bytes/s)
system.mem_ctrls.bw_read::total               4769628                       # Total read bandwidth from this memory (bytes/s)
system.mem_ctrls.bw_inst_read::cpu0.inst        13125                       # Instruction read bandwidth from this memory (bytes/s)
system.mem_ctrls.bw_inst_read::cpu1.inst         1152                       # Instruction read bandwidth from this memory (bytes/s)
system.mem_ctrls.bw_inst_read::cpu2.inst         2331                       # Instruction read bandwidth from this memory (bytes/s)
system.mem_ctrls.bw_inst_read::cpu3.inst        44441                       # Instruction read bandwidth from this memory (bytes/s)
system.mem_ctrls.bw_inst_read::total            61048                       # Instruction read bandwidth from this memory (bytes/s)
system.mem_ctrls.bw_write::writebacks         3996062                       # Write bandwidth from this memory (bytes/s)
system.mem_ctrls.bw_write::total              3996062                       # Write bandwidth from this memory (bytes/s)
system.mem_ctrls.bw_total::writebacks         3996062                       # Total bandwidth to/from this memory (bytes/s)
system.mem_ctrls.bw_total::cpu0.inst            13125                       # Total bandwidth to/from this memory (bytes/s)
system.mem_ctrls.bw_total::cpu0.data            19871                       # Total bandwidth to/from this memory (bytes/s)
system.mem_ctrls.bw_total::cpu1.inst             1152                       # Total bandwidth to/from this memory (bytes/s)
system.mem_ctrls.bw_total::cpu1.data             2738                       # Total bandwidth to/from this memory (bytes/s)
system.mem_ctrls.bw_total::cpu2.inst             2331                       # Total bandwidth to/from this memory (bytes/s)
system.mem_ctrls.bw_total::cpu2.data          3959021                       # Total bandwidth to/from this memory (bytes/s)
system.mem_ctrls.bw_total::cpu3.inst            44441                       # Total bandwidth to/from this memory (bytes/s)
system.mem_ctrls.bw_total::cpu3.data           726950                       # Total bandwidth to/from this memory (bytes/s)
system.mem_ctrls.bw_total::total              8765690                       # Total bandwidth to/from this memory (bytes/s)
system.mem_ctrls.readReqs                     4234435                       # Number of read requests accepted
system.mem_ctrls.writeReqs                    3547670                       # Number of write requests accepted
system.mem_ctrls.readBursts                   4234435                       # Number of DRAM read bursts, including those serviced by the write queue
system.mem_ctrls.writeBursts                  3547670                       # Number of DRAM write bursts, including those merged in the write queue
system.mem_ctrls.bytesReadDRAM              266013696                       # Total number of bytes read from DRAM
system.mem_ctrls.bytesReadWrQ                 4990144                       # Total number of bytes read from write queue
system.mem_ctrls.bytesWritten               223218432                       # Total number of bytes written to DRAM
system.mem_ctrls.bytesReadSys               271003840                       # Total read bytes from the system interface side
system.mem_ctrls.bytesWrittenSys            227050880                       # Total written bytes from the system interface side
system.mem_ctrls.servicedByWrQ                  77971                       # Number of DRAM read bursts serviced by the write queue
system.mem_ctrls.mergedWrBursts                 59852                       # Number of DRAM write bursts merged with an existing one
system.mem_ctrls.neitherReadNorWriteReqs            0                       # Number of requests that are neither read nor write
system.mem_ctrls.perBankRdBursts::0            196473                       # Per bank write bursts
system.mem_ctrls.perBankRdBursts::1            273107                       # Per bank write bursts
system.mem_ctrls.perBankRdBursts::2            232807                       # Per bank write bursts
system.mem_ctrls.perBankRdBursts::3            290504                       # Per bank write bursts
system.mem_ctrls.perBankRdBursts::4            288006                       # Per bank write bursts
system.mem_ctrls.perBankRdBursts::5            311112                       # Per bank write bursts
system.mem_ctrls.perBankRdBursts::6            314037                       # Per bank write bursts
system.mem_ctrls.perBankRdBursts::7            259705                       # Per bank write bursts
system.mem_ctrls.perBankRdBursts::8            262954                       # Per bank write bursts
system.mem_ctrls.perBankRdBursts::9            235754                       # Per bank write bursts
system.mem_ctrls.perBankRdBursts::10           250545                       # Per bank write bursts
system.mem_ctrls.perBankRdBursts::11           243812                       # Per bank write bursts
system.mem_ctrls.perBankRdBursts::12           296603                       # Per bank write bursts
system.mem_ctrls.perBankRdBursts::13           235991                       # Per bank write bursts
system.mem_ctrls.perBankRdBursts::14           301507                       # Per bank write bursts
system.mem_ctrls.perBankRdBursts::15           163547                       # Per bank write bursts
system.mem_ctrls.perBankWrBursts::0            166606                       # Per bank write bursts
system.mem_ctrls.perBankWrBursts::1            230664                       # Per bank write bursts
system.mem_ctrls.perBankWrBursts::2            196645                       # Per bank write bursts
system.mem_ctrls.perBankWrBursts::3            244206                       # Per bank write bursts
system.mem_ctrls.perBankWrBursts::4            244573                       # Per bank write bursts
system.mem_ctrls.perBankWrBursts::5            264181                       # Per bank write bursts
system.mem_ctrls.perBankWrBursts::6            239250                       # Per bank write bursts
system.mem_ctrls.perBankWrBursts::7            225163                       # Per bank write bursts
system.mem_ctrls.perBankWrBursts::8            221468                       # Per bank write bursts
system.mem_ctrls.perBankWrBursts::9            200356                       # Per bank write bursts
system.mem_ctrls.perBankWrBursts::10           214834                       # Per bank write bursts
system.mem_ctrls.perBankWrBursts::11           207781                       # Per bank write bursts
system.mem_ctrls.perBankWrBursts::12           258048                       # Per bank write bursts
system.mem_ctrls.perBankWrBursts::13           205845                       # Per bank write bursts
system.mem_ctrls.perBankWrBursts::14           229517                       # Per bank write bursts
system.mem_ctrls.perBankWrBursts::15           138651                       # Per bank write bursts
system.mem_ctrls.numRdRetry                         0                       # Number of times read queue was full causing retry
system.mem_ctrls.numWrRetry                         0                       # Number of times write queue was full causing retry
system.mem_ctrls.totGap                  56818658491980                       # Total gap between requests
system.mem_ctrls.readPktSize::0                     0                       # Read request sizes (log2)
system.mem_ctrls.readPktSize::1                     0                       # Read request sizes (log2)
system.mem_ctrls.readPktSize::2                     0                       # Read request sizes (log2)
system.mem_ctrls.readPktSize::3                     0                       # Read request sizes (log2)
system.mem_ctrls.readPktSize::4                     0                       # Read request sizes (log2)
system.mem_ctrls.readPktSize::5                     0                       # Read request sizes (log2)
system.mem_ctrls.readPktSize::6               4234435                       # Read request sizes (log2)
system.mem_ctrls.writePktSize::0                    0                       # Write request sizes (log2)
system.mem_ctrls.writePktSize::1                    0                       # Write request sizes (log2)
system.mem_ctrls.writePktSize::2                    0                       # Write request sizes (log2)
system.mem_ctrls.writePktSize::3                    0                       # Write request sizes (log2)
system.mem_ctrls.writePktSize::4                    0                       # Write request sizes (log2)
system.mem_ctrls.writePktSize::5                    0                       # Write request sizes (log2)
system.mem_ctrls.writePktSize::6              3547670                       # Write request sizes (log2)
system.mem_ctrls.rdQLenPdf::0                 4054553                       # What read queue length does an incoming req see
system.mem_ctrls.rdQLenPdf::1                   90495                       # What read queue length does an incoming req see
system.mem_ctrls.rdQLenPdf::2                    7384                       # What read queue length does an incoming req see
system.mem_ctrls.rdQLenPdf::3                    3591                       # What read queue length does an incoming req see
system.mem_ctrls.rdQLenPdf::4                     381                       # What read queue length does an incoming req see
system.mem_ctrls.rdQLenPdf::5                      39                       # What read queue length does an incoming req see
system.mem_ctrls.rdQLenPdf::6                      14                       # What read queue length does an incoming req see
system.mem_ctrls.rdQLenPdf::7                       6                       # What read queue length does an incoming req see
system.mem_ctrls.rdQLenPdf::8                       1                       # What read queue length does an incoming req see
system.mem_ctrls.rdQLenPdf::9                       0                       # What read queue length does an incoming req see
system.mem_ctrls.rdQLenPdf::10                      0                       # What read queue length does an incoming req see
system.mem_ctrls.rdQLenPdf::11                      0                       # What read queue length does an incoming req see
system.mem_ctrls.rdQLenPdf::12                      0                       # What read queue length does an incoming req see
system.mem_ctrls.rdQLenPdf::13                      0                       # What read queue length does an incoming req see
system.mem_ctrls.rdQLenPdf::14                      0                       # What read queue length does an incoming req see
system.mem_ctrls.rdQLenPdf::15                      0                       # What read queue length does an incoming req see
system.mem_ctrls.rdQLenPdf::16                      0                       # What read queue length does an incoming req see
system.mem_ctrls.rdQLenPdf::17                      0                       # What read queue length does an incoming req see
system.mem_ctrls.rdQLenPdf::18                      0                       # What read queue length does an incoming req see
system.mem_ctrls.rdQLenPdf::19                      0                       # What read queue length does an incoming req see
system.mem_ctrls.rdQLenPdf::20                      0                       # What read queue length does an incoming req see
system.mem_ctrls.rdQLenPdf::21                      0                       # What read queue length does an incoming req see
system.mem_ctrls.rdQLenPdf::22                      0                       # What read queue length does an incoming req see
system.mem_ctrls.rdQLenPdf::23                      0                       # What read queue length does an incoming req see
system.mem_ctrls.rdQLenPdf::24                      0                       # What read queue length does an incoming req see
system.mem_ctrls.rdQLenPdf::25                      0                       # What read queue length does an incoming req see
system.mem_ctrls.rdQLenPdf::26                      0                       # What read queue length does an incoming req see
system.mem_ctrls.rdQLenPdf::27                      0                       # What read queue length does an incoming req see
system.mem_ctrls.rdQLenPdf::28                      0                       # What read queue length does an incoming req see
system.mem_ctrls.rdQLenPdf::29                      0                       # What read queue length does an incoming req see
system.mem_ctrls.rdQLenPdf::30                      0                       # What read queue length does an incoming req see
system.mem_ctrls.rdQLenPdf::31                      0                       # What read queue length does an incoming req see
system.mem_ctrls.wrQLenPdf::0                       1                       # What write queue length does an incoming req see
system.mem_ctrls.wrQLenPdf::1                       1                       # What write queue length does an incoming req see
system.mem_ctrls.wrQLenPdf::2                       1                       # What write queue length does an incoming req see
system.mem_ctrls.wrQLenPdf::3                       1                       # What write queue length does an incoming req see
system.mem_ctrls.wrQLenPdf::4                       1                       # What write queue length does an incoming req see
system.mem_ctrls.wrQLenPdf::5                       1                       # What write queue length does an incoming req see
system.mem_ctrls.wrQLenPdf::6                       1                       # What write queue length does an incoming req see
system.mem_ctrls.wrQLenPdf::7                       1                       # What write queue length does an incoming req see
system.mem_ctrls.wrQLenPdf::8                       1                       # What write queue length does an incoming req see
system.mem_ctrls.wrQLenPdf::9                       1                       # What write queue length does an incoming req see
system.mem_ctrls.wrQLenPdf::10                      1                       # What write queue length does an incoming req see
system.mem_ctrls.wrQLenPdf::11                      1                       # What write queue length does an incoming req see
system.mem_ctrls.wrQLenPdf::12                      1                       # What write queue length does an incoming req see
system.mem_ctrls.wrQLenPdf::13                      1                       # What write queue length does an incoming req see
system.mem_ctrls.wrQLenPdf::14                      1                       # What write queue length does an incoming req see
system.mem_ctrls.wrQLenPdf::15                 156044                       # What write queue length does an incoming req see
system.mem_ctrls.wrQLenPdf::16                 158472                       # What write queue length does an incoming req see
system.mem_ctrls.wrQLenPdf::17                 193731                       # What write queue length does an incoming req see
system.mem_ctrls.wrQLenPdf::18                 196958                       # What write queue length does an incoming req see
system.mem_ctrls.wrQLenPdf::19                 197875                       # What write queue length does an incoming req see
system.mem_ctrls.wrQLenPdf::20                 198374                       # What write queue length does an incoming req see
system.mem_ctrls.wrQLenPdf::21                 198451                       # What write queue length does an incoming req see
system.mem_ctrls.wrQLenPdf::22                 198518                       # What write queue length does an incoming req see
system.mem_ctrls.wrQLenPdf::23                 198554                       # What write queue length does an incoming req see
system.mem_ctrls.wrQLenPdf::24                 198615                       # What write queue length does an incoming req see
system.mem_ctrls.wrQLenPdf::25                 198675                       # What write queue length does an incoming req see
system.mem_ctrls.wrQLenPdf::26                 198776                       # What write queue length does an incoming req see
system.mem_ctrls.wrQLenPdf::27                 198884                       # What write queue length does an incoming req see
system.mem_ctrls.wrQLenPdf::28                 198976                       # What write queue length does an incoming req see
system.mem_ctrls.wrQLenPdf::29                 199124                       # What write queue length does an incoming req see
system.mem_ctrls.wrQLenPdf::30                 199638                       # What write queue length does an incoming req see
system.mem_ctrls.wrQLenPdf::31                 199028                       # What write queue length does an incoming req see
system.mem_ctrls.wrQLenPdf::32                 198885                       # What write queue length does an incoming req see
system.mem_ctrls.wrQLenPdf::33                    180                       # What write queue length does an incoming req see
system.mem_ctrls.wrQLenPdf::34                     25                       # What write queue length does an incoming req see
system.mem_ctrls.wrQLenPdf::35                      8                       # What write queue length does an incoming req see
system.mem_ctrls.wrQLenPdf::36                      2                       # What write queue length does an incoming req see
system.mem_ctrls.wrQLenPdf::37                      2                       # What write queue length does an incoming req see
system.mem_ctrls.wrQLenPdf::38                      3                       # What write queue length does an incoming req see
system.mem_ctrls.wrQLenPdf::39                      1                       # What write queue length does an incoming req see
system.mem_ctrls.wrQLenPdf::40                      1                       # What write queue length does an incoming req see
system.mem_ctrls.wrQLenPdf::41                      1                       # What write queue length does an incoming req see
system.mem_ctrls.wrQLenPdf::42                      1                       # What write queue length does an incoming req see
system.mem_ctrls.wrQLenPdf::43                      1                       # What write queue length does an incoming req see
system.mem_ctrls.wrQLenPdf::44                      0                       # What write queue length does an incoming req see
system.mem_ctrls.wrQLenPdf::45                      0                       # What write queue length does an incoming req see
system.mem_ctrls.wrQLenPdf::46                      0                       # What write queue length does an incoming req see
system.mem_ctrls.wrQLenPdf::47                      0                       # What write queue length does an incoming req see
system.mem_ctrls.wrQLenPdf::48                      0                       # What write queue length does an incoming req see
system.mem_ctrls.wrQLenPdf::49                      0                       # What write queue length does an incoming req see
system.mem_ctrls.wrQLenPdf::50                      0                       # What write queue length does an incoming req see
system.mem_ctrls.wrQLenPdf::51                      0                       # What write queue length does an incoming req see
system.mem_ctrls.wrQLenPdf::52                      0                       # What write queue length does an incoming req see
system.mem_ctrls.wrQLenPdf::53                      0                       # What write queue length does an incoming req see
system.mem_ctrls.wrQLenPdf::54                      0                       # What write queue length does an incoming req see
system.mem_ctrls.wrQLenPdf::55                      0                       # What write queue length does an incoming req see
system.mem_ctrls.wrQLenPdf::56                      0                       # What write queue length does an incoming req see
system.mem_ctrls.wrQLenPdf::57                      0                       # What write queue length does an incoming req see
system.mem_ctrls.wrQLenPdf::58                      0                       # What write queue length does an incoming req see
system.mem_ctrls.wrQLenPdf::59                      0                       # What write queue length does an incoming req see
system.mem_ctrls.wrQLenPdf::60                      0                       # What write queue length does an incoming req see
system.mem_ctrls.wrQLenPdf::61                      0                       # What write queue length does an incoming req see
system.mem_ctrls.wrQLenPdf::62                      0                       # What write queue length does an incoming req see
system.mem_ctrls.wrQLenPdf::63                      0                       # What write queue length does an incoming req see
system.mem_ctrls.bytesPerActivate::samples      3595753                       # Bytes accessed per row activation
system.mem_ctrls.bytesPerActivate::mean    136.058040                       # Bytes accessed per row activation
system.mem_ctrls.bytesPerActivate::gmean   107.525096                       # Bytes accessed per row activation
system.mem_ctrls.bytesPerActivate::stdev   122.463293                       # Bytes accessed per row activation
system.mem_ctrls.bytesPerActivate::0-127      1852944     51.53%     51.53% # Bytes accessed per row activation
system.mem_ctrls.bytesPerActivate::128-255      1263610     35.14%     86.67% # Bytes accessed per row activation
system.mem_ctrls.bytesPerActivate::256-383       303508      8.44%     95.11% # Bytes accessed per row activation
system.mem_ctrls.bytesPerActivate::384-511        86830      2.41%     97.53% # Bytes accessed per row activation
system.mem_ctrls.bytesPerActivate::512-639        39912      1.11%     98.64% # Bytes accessed per row activation
system.mem_ctrls.bytesPerActivate::640-767        19849      0.55%     99.19% # Bytes accessed per row activation
system.mem_ctrls.bytesPerActivate::768-895        11009      0.31%     99.50% # Bytes accessed per row activation
system.mem_ctrls.bytesPerActivate::896-1023         6855      0.19%     99.69% # Bytes accessed per row activation
system.mem_ctrls.bytesPerActivate::1024-1151        11236      0.31%    100.00% # Bytes accessed per row activation
system.mem_ctrls.bytesPerActivate::total      3595753                       # Bytes accessed per row activation
system.mem_ctrls.rdPerTurnAround::samples       198198                       # Reads before turning the bus around for writes
system.mem_ctrls.rdPerTurnAround::mean      20.971206                       # Reads before turning the bus around for writes
system.mem_ctrls.rdPerTurnAround::gmean     19.969628                       # Reads before turning the bus around for writes
system.mem_ctrls.rdPerTurnAround::stdev     58.417735                       # Reads before turning the bus around for writes
system.mem_ctrls.rdPerTurnAround::0-511        198174     99.99%     99.99% # Reads before turning the bus around for writes
system.mem_ctrls.rdPerTurnAround::512-1023            8      0.00%     99.99% # Reads before turning the bus around for writes
system.mem_ctrls.rdPerTurnAround::1024-1535            3      0.00%     99.99% # Reads before turning the bus around for writes
system.mem_ctrls.rdPerTurnAround::1536-2047            3      0.00%     99.99% # Reads before turning the bus around for writes
system.mem_ctrls.rdPerTurnAround::2048-2559            1      0.00%    100.00% # Reads before turning the bus around for writes
system.mem_ctrls.rdPerTurnAround::2560-3071            1      0.00%    100.00% # Reads before turning the bus around for writes
system.mem_ctrls.rdPerTurnAround::4096-4607            2      0.00%    100.00% # Reads before turning the bus around for writes
system.mem_ctrls.rdPerTurnAround::5120-5631            2      0.00%    100.00% # Reads before turning the bus around for writes
system.mem_ctrls.rdPerTurnAround::8192-8703            1      0.00%    100.00% # Reads before turning the bus around for writes
system.mem_ctrls.rdPerTurnAround::11264-11775            1      0.00%    100.00% # Reads before turning the bus around for writes
system.mem_ctrls.rdPerTurnAround::12288-12799            1      0.00%    100.00% # Reads before turning the bus around for writes
system.mem_ctrls.rdPerTurnAround::12800-13311            1      0.00%    100.00% # Reads before turning the bus around for writes
system.mem_ctrls.rdPerTurnAround::total        198198                       # Reads before turning the bus around for writes
system.mem_ctrls.wrPerTurnAround::samples       198198                       # Writes before turning the bus around for reads
system.mem_ctrls.wrPerTurnAround::mean      17.597493                       # Writes before turning the bus around for reads
system.mem_ctrls.wrPerTurnAround::gmean     17.577912                       # Writes before turning the bus around for reads
system.mem_ctrls.wrPerTurnAround::stdev      0.811974                       # Writes before turning the bus around for reads
system.mem_ctrls.wrPerTurnAround::16            39587     19.97%     19.97% # Writes before turning the bus around for reads
system.mem_ctrls.wrPerTurnAround::17             2421      1.22%     21.19% # Writes before turning the bus around for reads
system.mem_ctrls.wrPerTurnAround::18           154453     77.93%     99.12% # Writes before turning the bus around for reads
system.mem_ctrls.wrPerTurnAround::19             1669      0.84%     99.97% # Writes before turning the bus around for reads
system.mem_ctrls.wrPerTurnAround::20               55      0.03%     99.99% # Writes before turning the bus around for reads
system.mem_ctrls.wrPerTurnAround::21               12      0.01%    100.00% # Writes before turning the bus around for reads
system.mem_ctrls.wrPerTurnAround::22                1      0.00%    100.00% # Writes before turning the bus around for reads
system.mem_ctrls.wrPerTurnAround::total        198198                       # Writes before turning the bus around for reads
system.mem_ctrls.totQLat                 282965794676                       # Total ticks spent queuing
system.mem_ctrls.totMemAccLat            360899494676                       # Total ticks spent from burst creation until serviced by the DRAM
system.mem_ctrls.totBusLat                20782320000                       # Total ticks spent in databus transfers
system.mem_ctrls.avgQLat                     68078.49                       # Average queueing delay per DRAM burst
system.mem_ctrls.avgBusLat                    5000.00                       # Average bus latency per DRAM burst
system.mem_ctrls.avgMemAccLat                86828.49                       # Average memory access latency per DRAM burst
system.mem_ctrls.avgRdBW                         4.68                       # Average DRAM read bandwidth in MiByte/s
system.mem_ctrls.avgWrBW                         3.93                       # Average achieved write bandwidth in MiByte/s
system.mem_ctrls.avgRdBWSys                      4.77                       # Average system read bandwidth in MiByte/s
system.mem_ctrls.avgWrBWSys                      4.00                       # Average system write bandwidth in MiByte/s
system.mem_ctrls.peakBW                      12800.00                       # Theoretical peak bandwidth in MiByte/s
system.mem_ctrls.busUtil                         0.07                       # Data bus utilization in percentage
system.mem_ctrls.busUtilRead                     0.04                       # Data bus utilization in percentage for reads
system.mem_ctrls.busUtilWrite                    0.03                       # Data bus utilization in percentage for writes
system.mem_ctrls.avgRdQLen                       1.00                       # Average read queue length when enqueuing
system.mem_ctrls.avgWrQLen                      25.67                       # Average write queue length when enqueuing
system.mem_ctrls.readRowHits                  2168994                       # Number of row buffer hits during reads
system.mem_ctrls.writeRowHits                 1879499                       # Number of row buffer hits during writes
system.mem_ctrls.readRowHitRate                 52.18                       # Row buffer hit rate for reads
system.mem_ctrls.writeRowHitRate                53.89                       # Row buffer hit rate for writes
system.mem_ctrls.avgGap                    7301194.02                       # Average gap between requests
system.mem_ctrls.pageHitRate                    52.96                       # Row buffer hit rate, read and write combined
system.mem_ctrls_0.actEnergy              13400423400                       # Energy for activate commands per rank (pJ)
system.mem_ctrls_0.preEnergy               7122486360                       # Energy for precharge commands per rank (pJ)
system.mem_ctrls_0.readEnergy             15463462140                       # Energy for read commands per rank (pJ)
system.mem_ctrls_0.writeEnergy             9454923360                       # Energy for write commands per rank (pJ)
system.mem_ctrls_0.refreshEnergy         734317783680.000122                       # Energy for refresh commands per rank (pJ)
system.mem_ctrls_0.actBackEnergy         316298853900                       # Energy for active background per rank (pJ)
system.mem_ctrls_0.preBackEnergy          38195137920                       # Energy for precharge background per rank (pJ)
system.mem_ctrls_0.actPowerDownEnergy    1826624612880                       # Energy for active power-down per rank (pJ)
system.mem_ctrls_0.prePowerDownEnergy    1040575818240                       # Energy for precharge power-down per rank (pJ)
system.mem_ctrls_0.selfRefreshEnergy     11971052922060                       # Energy for self refresh per rank (pJ)
system.mem_ctrls_0.totalEnergy           15972672454740                       # Total energy per rank (pJ)
system.mem_ctrls_0.averagePower            281.116676                       # Core power per rank (mW)
system.mem_ctrls_0.totalIdleTime         56025185685072                       # Total Idle time Per DRAM Rank
system.mem_ctrls_0.memoryStateTime::IDLE  71152078361                       # Time in different power states
system.mem_ctrls_0.memoryStateTime::REF  312125792000                       # Time in different power states
system.mem_ctrls_0.memoryStateTime::SREF 49309595663748                       # Time in different power states
system.mem_ctrls_0.memoryStateTime::PRE_PDN 2709832811717                       # Time in different power states
system.mem_ctrls_0.memoryStateTime::ACT  410194908660                       # Time in different power states
system.mem_ctrls_0.memoryStateTime::ACT_PDN 4005757269981                       # Time in different power states
system.mem_ctrls_1.actEnergy              12273295860                       # Energy for activate commands per rank (pJ)
system.mem_ctrls_1.preEnergy               6523396275                       # Energy for precharge commands per rank (pJ)
system.mem_ctrls_1.readEnergy             14213690820                       # Energy for read commands per rank (pJ)
system.mem_ctrls_1.writeEnergy             8751330000                       # Energy for write commands per rank (pJ)
system.mem_ctrls_1.refreshEnergy         663163984080.000122                       # Energy for refresh commands per rank (pJ)
system.mem_ctrls_1.actBackEnergy         292707223650                       # Energy for active background per rank (pJ)
system.mem_ctrls_1.preBackEnergy          35127040320                       # Energy for precharge background per rank (pJ)
system.mem_ctrls_1.actPowerDownEnergy    1613525841870                       # Energy for active power-down per rank (pJ)
system.mem_ctrls_1.prePowerDownEnergy    947272281600                       # Energy for precharge power-down per rank (pJ)
system.mem_ctrls_1.selfRefreshEnergy     12145847971785                       # Energy for self refresh per rank (pJ)
system.mem_ctrls_1.totalEnergy           15739546161870                       # Total energy per rank (pJ)
system.mem_ctrls_1.averagePower            277.013688                       # Core power per rank (mW)
system.mem_ctrls_1.totalIdleTime         56084968025006                       # Total Idle time Per DRAM Rank
system.mem_ctrls_1.memoryStateTime::IDLE  65945088277                       # Time in different power states
system.mem_ctrls_1.memoryStateTime::REF  281914848000                       # Time in different power states
system.mem_ctrls_1.memoryStateTime::SREF 50079679317482                       # Time in different power states
system.mem_ctrls_1.memoryStateTime::PRE_PDN 2466854160685                       # Time in different power states
system.mem_ctrls_1.memoryStateTime::ACT  385830300549                       # Time in different power states
system.mem_ctrls_1.memoryStateTime::ACT_PDN 3538434809474                       # Time in different power states
system.pwrStateResidencyTicks::UNDEFINED 56818658524467                       # Cumulative time (in ticks) in various power states
system.cpu0.branchPred.lookups                    258                       # Number of BP lookups
system.cpu0.branchPred.condPredicted              258                       # Number of conditional branches predicted
system.cpu0.branchPred.condIncorrect              102                       # Number of conditional branches incorrect
system.cpu0.branchPred.BTBLookups                 234                       # Number of BTB lookups
system.cpu0.branchPred.BTBHits                      0                       # Number of BTB hits
system.cpu0.branchPred.BTBCorrect                   0                       # Number of correct BTB predictions (this stat may not work properly.
system.cpu0.branchPred.BTBHitPct             0.000000                       # BTB Hit Percentage
system.cpu0.branchPred.usedRAS                      0                       # Number of times the RAS was used to get a target.
system.cpu0.branchPred.RASInCorrect                 0                       # Number of incorrect RAS predictions.
system.cpu0.branchPred.indirectLookups            234                       # Number of indirect predictor lookups.
system.cpu0.branchPred.indirectHits                45                       # Number of indirect target hits.
system.cpu0.branchPred.indirectMisses             189                       # Number of indirect misses.
system.cpu0.branchPredindirectMispredicted           88                       # Number of mispredicted indirect branches.
system.cpu_voltage_domain.voltage                   1                       # Voltage in Volts
system.cpu_clk_domain.clock                       833                       # Clock period in ticks
system.cpu0.dtb.walker.pwrStateResidencyTicks::UNDEFINED 56818658524467                       # Cumulative time (in ticks) in various power states
system.cpu0.apic_clk_domain.clock               13328                       # Clock period in ticks
system.cpu0.interrupts.pwrStateResidencyTicks::UNDEFINED 56818658524467                       # Cumulative time (in ticks) in various power states
system.cpu0.itb.walker.pwrStateResidencyTicks::UNDEFINED 56818658524467                       # Cumulative time (in ticks) in various power states
system.cpu0.workload.num_syscalls                 102                       # Number of system calls
system.cpu0.pwrStateResidencyTicks::ON   56818658524467                       # Cumulative time (in ticks) in various power states
system.cpu0.numCycles                        46159405                       # number of cpu cycles simulated
system.cpu0.numWorkItemsStarted                     0                       # number of work items this cpu started
system.cpu0.numWorkItemsCompleted                   0                       # number of work items this cpu completed
system.cpu0.committedInsts                   11662611                       # Number of instructions committed
system.cpu0.committedOps                     23226372                       # Number of ops (including micro ops) committed
system.cpu0.discardedOps                      4932214                       # Number of ops (including micro ops) which were discarded before commit
system.cpu0.numFetchSuspends                        0                       # Number of times Execute suspended instruction fetching
system.cpu0.cpi                              3.957896                       # CPI: cycles per instruction
system.cpu0.ipc                              0.252659                       # IPC: instructions per cycle
system.cpu0.op_class_0::No_OpClass             130288      0.56%      0.56% # Class of committed instruction
system.cpu0.op_class_0::IntAlu               18384574     79.15%     79.71% # Class of committed instruction
system.cpu0.op_class_0::IntMult                   578      0.00%     79.72% # Class of committed instruction
system.cpu0.op_class_0::IntDiv                    560      0.00%     79.72% # Class of committed instruction
system.cpu0.op_class_0::FloatAdd               155345      0.67%     80.39% # Class of committed instruction
system.cpu0.op_class_0::FloatCmp                    0      0.00%     80.39% # Class of committed instruction
system.cpu0.op_class_0::FloatCvt                    0      0.00%     80.39% # Class of committed instruction
system.cpu0.op_class_0::FloatMult                   0      0.00%     80.39% # Class of committed instruction
system.cpu0.op_class_0::FloatMultAcc                0      0.00%     80.39% # Class of committed instruction
system.cpu0.op_class_0::FloatDiv                    0      0.00%     80.39% # Class of committed instruction
system.cpu0.op_class_0::FloatMisc                   0      0.00%     80.39% # Class of committed instruction
system.cpu0.op_class_0::FloatSqrt                   0      0.00%     80.39% # Class of committed instruction
system.cpu0.op_class_0::SimdAdd                     0      0.00%     80.39% # Class of committed instruction
system.cpu0.op_class_0::SimdAddAcc                  0      0.00%     80.39% # Class of committed instruction
system.cpu0.op_class_0::SimdAlu                     0      0.00%     80.39% # Class of committed instruction
system.cpu0.op_class_0::SimdCmp                     0      0.00%     80.39% # Class of committed instruction
system.cpu0.op_class_0::SimdCvt                     0      0.00%     80.39% # Class of committed instruction
system.cpu0.op_class_0::SimdMisc                    0      0.00%     80.39% # Class of committed instruction
system.cpu0.op_class_0::SimdMult                    0      0.00%     80.39% # Class of committed instruction
system.cpu0.op_class_0::SimdMultAcc                 0      0.00%     80.39% # Class of committed instruction
system.cpu0.op_class_0::SimdShift                   0      0.00%     80.39% # Class of committed instruction
system.cpu0.op_class_0::SimdShiftAcc                0      0.00%     80.39% # Class of committed instruction
system.cpu0.op_class_0::SimdSqrt                    0      0.00%     80.39% # Class of committed instruction
system.cpu0.op_class_0::SimdFloatAdd                0      0.00%     80.39% # Class of committed instruction
system.cpu0.op_class_0::SimdFloatAlu                0      0.00%     80.39% # Class of committed instruction
system.cpu0.op_class_0::SimdFloatCmp                0      0.00%     80.39% # Class of committed instruction
system.cpu0.op_class_0::SimdFloatCvt                0      0.00%     80.39% # Class of committed instruction
system.cpu0.op_class_0::SimdFloatDiv                0      0.00%     80.39% # Class of committed instruction
system.cpu0.op_class_0::SimdFloatMisc               0      0.00%     80.39% # Class of committed instruction
system.cpu0.op_class_0::SimdFloatMult               0      0.00%     80.39% # Class of committed instruction
system.cpu0.op_class_0::SimdFloatMultAcc            0      0.00%     80.39% # Class of committed instruction
system.cpu0.op_class_0::SimdFloatSqrt               0      0.00%     80.39% # Class of committed instruction
system.cpu0.op_class_0::MemRead               2732068     11.76%     92.15% # Class of committed instruction
system.cpu0.op_class_0::MemWrite              1788266      7.70%     99.85% # Class of committed instruction
system.cpu0.op_class_0::FloatMemRead            30963      0.13%     99.98% # Class of committed instruction
system.cpu0.op_class_0::FloatMemWrite            3730      0.02%    100.00% # Class of committed instruction
system.cpu0.op_class_0::IprAccess                   0      0.00%    100.00% # Class of committed instruction
system.cpu0.op_class_0::InstPrefetch                0      0.00%    100.00% # Class of committed instruction
system.cpu0.op_class_0::total                23226372                       # Class of committed instruction
system.cpu0.tickCycles                       35802872                       # Number of cycles that the object actually ticked
system.cpu0.idleCycles                       10356533                       # Total number of cycles that the object has spent stopped
system.cpu0.dcache.tags.pwrStateResidencyTicks::UNDEFINED 56818658524467                       # Cumulative time (in ticks) in various power states
system.cpu0.dcache.tags.replacements           108823                       # number of replacements
system.cpu0.dcache.tags.tagsinuse          383.999645                       # Cycle average of tags in use
system.cpu0.dcache.tags.total_refs            4851388                       # Total number of references to valid blocks.
system.cpu0.dcache.tags.sampled_refs           109207                       # Sample count of references to valid blocks.
system.cpu0.dcache.tags.avg_refs            44.423782                       # Average number of references to valid blocks.
system.cpu0.dcache.tags.warmup_cycle        113852774                       # Cycle when the warmup percentage was hit.
system.cpu0.dcache.tags.occ_blocks::cpu0.data   383.999645                       # Average occupied blocks per requestor
system.cpu0.dcache.tags.occ_percent::cpu0.data     0.999999                       # Average percentage of cache occupancy
system.cpu0.dcache.tags.occ_percent::total     0.999999                       # Average percentage of cache occupancy
system.cpu0.dcache.tags.occ_task_id_blocks::1024          384                       # Occupied blocks per task id
system.cpu0.dcache.tags.age_task_id_blocks_1024::4          384                       # Occupied blocks per task id
system.cpu0.dcache.tags.occ_task_id_percent::1024            1                       # Percentage of cache occupancy per task id
system.cpu0.dcache.tags.tag_accesses         29946175                       # Number of tag accesses
system.cpu0.dcache.tags.data_accesses        29946175                       # Number of data accesses
system.cpu0.dcache.pwrStateResidencyTicks::UNDEFINED 56818658524467                       # Cumulative time (in ticks) in various power states
system.cpu0.dcache.ReadReq_hits::cpu0.data      3091917                       # number of ReadReq hits
system.cpu0.dcache.ReadReq_hits::total        3091917                       # number of ReadReq hits
system.cpu0.dcache.WriteReq_hits::cpu0.data      1759471                       # number of WriteReq hits
system.cpu0.dcache.WriteReq_hits::total       1759471                       # number of WriteReq hits
system.cpu0.dcache.demand_hits::cpu0.data      4851388                       # number of demand (read+write) hits
system.cpu0.dcache.demand_hits::total         4851388                       # number of demand (read+write) hits
system.cpu0.dcache.overall_hits::cpu0.data      4851388                       # number of overall hits
system.cpu0.dcache.overall_hits::total        4851388                       # number of overall hits
system.cpu0.dcache.ReadReq_misses::cpu0.data        88844                       # number of ReadReq misses
system.cpu0.dcache.ReadReq_misses::total        88844                       # number of ReadReq misses
system.cpu0.dcache.WriteReq_misses::cpu0.data        32596                       # number of WriteReq misses
system.cpu0.dcache.WriteReq_misses::total        32596                       # number of WriteReq misses
system.cpu0.dcache.demand_misses::cpu0.data       121440                       # number of demand (read+write) misses
system.cpu0.dcache.demand_misses::total        121440                       # number of demand (read+write) misses
system.cpu0.dcache.overall_misses::cpu0.data       121440                       # number of overall misses
system.cpu0.dcache.overall_misses::total       121440                       # number of overall misses
system.cpu0.dcache.ReadReq_miss_latency::cpu0.data   2608396224                       # number of ReadReq miss cycles
system.cpu0.dcache.ReadReq_miss_latency::total   2608396224                       # number of ReadReq miss cycles
system.cpu0.dcache.WriteReq_miss_latency::cpu0.data   2186309293                       # number of WriteReq miss cycles
system.cpu0.dcache.WriteReq_miss_latency::total   2186309293                       # number of WriteReq miss cycles
system.cpu0.dcache.demand_miss_latency::cpu0.data   4794705517                       # number of demand (read+write) miss cycles
system.cpu0.dcache.demand_miss_latency::total   4794705517                       # number of demand (read+write) miss cycles
system.cpu0.dcache.overall_miss_latency::cpu0.data   4794705517                       # number of overall miss cycles
system.cpu0.dcache.overall_miss_latency::total   4794705517                       # number of overall miss cycles
system.cpu0.dcache.ReadReq_accesses::cpu0.data      3180761                       # number of ReadReq accesses(hits+misses)
system.cpu0.dcache.ReadReq_accesses::total      3180761                       # number of ReadReq accesses(hits+misses)
system.cpu0.dcache.WriteReq_accesses::cpu0.data      1792067                       # number of WriteReq accesses(hits+misses)
system.cpu0.dcache.WriteReq_accesses::total      1792067                       # number of WriteReq accesses(hits+misses)
system.cpu0.dcache.demand_accesses::cpu0.data      4972828                       # number of demand (read+write) accesses
system.cpu0.dcache.demand_accesses::total      4972828                       # number of demand (read+write) accesses
system.cpu0.dcache.overall_accesses::cpu0.data      4972828                       # number of overall (read+write) accesses
system.cpu0.dcache.overall_accesses::total      4972828                       # number of overall (read+write) accesses
system.cpu0.dcache.ReadReq_miss_rate::cpu0.data     0.027932                       # miss rate for ReadReq accesses
system.cpu0.dcache.ReadReq_miss_rate::total     0.027932                       # miss rate for ReadReq accesses
system.cpu0.dcache.WriteReq_miss_rate::cpu0.data     0.018189                       # miss rate for WriteReq accesses
system.cpu0.dcache.WriteReq_miss_rate::total     0.018189                       # miss rate for WriteReq accesses
system.cpu0.dcache.demand_miss_rate::cpu0.data     0.024421                       # miss rate for demand accesses
system.cpu0.dcache.demand_miss_rate::total     0.024421                       # miss rate for demand accesses
system.cpu0.dcache.overall_miss_rate::cpu0.data     0.024421                       # miss rate for overall accesses
system.cpu0.dcache.overall_miss_rate::total     0.024421                       # miss rate for overall accesses
system.cpu0.dcache.ReadReq_avg_miss_latency::cpu0.data 29359.283958                       # average ReadReq miss latency
system.cpu0.dcache.ReadReq_avg_miss_latency::total 29359.283958                       # average ReadReq miss latency
system.cpu0.dcache.WriteReq_avg_miss_latency::cpu0.data 67072.932047                       # average WriteReq miss latency
system.cpu0.dcache.WriteReq_avg_miss_latency::total 67072.932047                       # average WriteReq miss latency
system.cpu0.dcache.demand_avg_miss_latency::cpu0.data 39482.094178                       # average overall miss latency
system.cpu0.dcache.demand_avg_miss_latency::total 39482.094178                       # average overall miss latency
system.cpu0.dcache.overall_avg_miss_latency::cpu0.data 39482.094178                       # average overall miss latency
system.cpu0.dcache.overall_avg_miss_latency::total 39482.094178                       # average overall miss latency
system.cpu0.dcache.blocked_cycles::no_mshrs            0                       # number of cycles access was blocked
system.cpu0.dcache.blocked_cycles::no_targets            0                       # number of cycles access was blocked
system.cpu0.dcache.blocked::no_mshrs                0                       # number of cycles access was blocked
system.cpu0.dcache.blocked::no_targets              0                       # number of cycles access was blocked
system.cpu0.dcache.avg_blocked_cycles::no_mshrs          nan                       # average number of cycles each access was blocked
system.cpu0.dcache.avg_blocked_cycles::no_targets          nan                       # average number of cycles each access was blocked
system.cpu0.dcache.writebacks::writebacks        63302                       # number of writebacks
system.cpu0.dcache.writebacks::total            63302                       # number of writebacks
system.cpu0.dcache.ReadReq_mshr_hits::cpu0.data         2710                       # number of ReadReq MSHR hits
system.cpu0.dcache.ReadReq_mshr_hits::total         2710                       # number of ReadReq MSHR hits
system.cpu0.dcache.WriteReq_mshr_hits::cpu0.data         9523                       # number of WriteReq MSHR hits
system.cpu0.dcache.WriteReq_mshr_hits::total         9523                       # number of WriteReq MSHR hits
system.cpu0.dcache.demand_mshr_hits::cpu0.data        12233                       # number of demand (read+write) MSHR hits
system.cpu0.dcache.demand_mshr_hits::total        12233                       # number of demand (read+write) MSHR hits
system.cpu0.dcache.overall_mshr_hits::cpu0.data        12233                       # number of overall MSHR hits
system.cpu0.dcache.overall_mshr_hits::total        12233                       # number of overall MSHR hits
system.cpu0.dcache.ReadReq_mshr_misses::cpu0.data        86134                       # number of ReadReq MSHR misses
system.cpu0.dcache.ReadReq_mshr_misses::total        86134                       # number of ReadReq MSHR misses
system.cpu0.dcache.WriteReq_mshr_misses::cpu0.data        23073                       # number of WriteReq MSHR misses
system.cpu0.dcache.WriteReq_mshr_misses::total        23073                       # number of WriteReq MSHR misses
system.cpu0.dcache.demand_mshr_misses::cpu0.data       109207                       # number of demand (read+write) MSHR misses
system.cpu0.dcache.demand_mshr_misses::total       109207                       # number of demand (read+write) MSHR misses
system.cpu0.dcache.overall_mshr_misses::cpu0.data       109207                       # number of overall MSHR misses
system.cpu0.dcache.overall_mshr_misses::total       109207                       # number of overall MSHR misses
system.cpu0.dcache.ReadReq_mshr_miss_latency::cpu0.data   2385200538                       # number of ReadReq MSHR miss cycles
system.cpu0.dcache.ReadReq_mshr_miss_latency::total   2385200538                       # number of ReadReq MSHR miss cycles
system.cpu0.dcache.WriteReq_mshr_miss_latency::cpu0.data   1522868109                       # number of WriteReq MSHR miss cycles
system.cpu0.dcache.WriteReq_mshr_miss_latency::total   1522868109                       # number of WriteReq MSHR miss cycles
system.cpu0.dcache.demand_mshr_miss_latency::cpu0.data   3908068647                       # number of demand (read+write) MSHR miss cycles
system.cpu0.dcache.demand_mshr_miss_latency::total   3908068647                       # number of demand (read+write) MSHR miss cycles
system.cpu0.dcache.overall_mshr_miss_latency::cpu0.data   3908068647                       # number of overall MSHR miss cycles
system.cpu0.dcache.overall_mshr_miss_latency::total   3908068647                       # number of overall MSHR miss cycles
system.cpu0.dcache.ReadReq_mshr_miss_rate::cpu0.data     0.027080                       # mshr miss rate for ReadReq accesses
system.cpu0.dcache.ReadReq_mshr_miss_rate::total     0.027080                       # mshr miss rate for ReadReq accesses
system.cpu0.dcache.WriteReq_mshr_miss_rate::cpu0.data     0.012875                       # mshr miss rate for WriteReq accesses
system.cpu0.dcache.WriteReq_mshr_miss_rate::total     0.012875                       # mshr miss rate for WriteReq accesses
system.cpu0.dcache.demand_mshr_miss_rate::cpu0.data     0.021961                       # mshr miss rate for demand accesses
system.cpu0.dcache.demand_mshr_miss_rate::total     0.021961                       # mshr miss rate for demand accesses
system.cpu0.dcache.overall_mshr_miss_rate::cpu0.data     0.021961                       # mshr miss rate for overall accesses
system.cpu0.dcache.overall_mshr_miss_rate::total     0.021961                       # mshr miss rate for overall accesses
system.cpu0.dcache.ReadReq_avg_mshr_miss_latency::cpu0.data 27691.742378                       # average ReadReq mshr miss latency
system.cpu0.dcache.ReadReq_avg_mshr_miss_latency::total 27691.742378                       # average ReadReq mshr miss latency
system.cpu0.dcache.WriteReq_avg_mshr_miss_latency::cpu0.data 66002.171759                       # average WriteReq mshr miss latency
system.cpu0.dcache.WriteReq_avg_mshr_miss_latency::total 66002.171759                       # average WriteReq mshr miss latency
system.cpu0.dcache.demand_avg_mshr_miss_latency::cpu0.data 35785.880456                       # average overall mshr miss latency
system.cpu0.dcache.demand_avg_mshr_miss_latency::total 35785.880456                       # average overall mshr miss latency
system.cpu0.dcache.overall_avg_mshr_miss_latency::cpu0.data 35785.880456                       # average overall mshr miss latency
system.cpu0.dcache.overall_avg_mshr_miss_latency::total 35785.880456                       # average overall mshr miss latency
system.cpu0.dtb_walker_cache.tags.pwrStateResidencyTicks::UNDEFINED 56818658524467                       # Cumulative time (in ticks) in various power states
system.cpu0.dtb_walker_cache.tags.replacements            0                       # number of replacements
system.cpu0.dtb_walker_cache.tags.tagsinuse            0                       # Cycle average of tags in use
system.cpu0.dtb_walker_cache.tags.total_refs            0                       # Total number of references to valid blocks.
system.cpu0.dtb_walker_cache.tags.sampled_refs            0                       # Sample count of references to valid blocks.
system.cpu0.dtb_walker_cache.tags.avg_refs          nan                       # Average number of references to valid blocks.
system.cpu0.dtb_walker_cache.tags.warmup_cycle            0                       # Cycle when the warmup percentage was hit.
system.cpu0.dtb_walker_cache.tags.tag_accesses            0                       # Number of tag accesses
system.cpu0.dtb_walker_cache.tags.data_accesses            0                       # Number of data accesses
system.cpu0.dtb_walker_cache.pwrStateResidencyTicks::UNDEFINED 56818658524467                       # Cumulative time (in ticks) in various power states
system.cpu0.dtb_walker_cache.blocked_cycles::no_mshrs            0                       # number of cycles access was blocked
system.cpu0.dtb_walker_cache.blocked_cycles::no_targets            0                       # number of cycles access was blocked
system.cpu0.dtb_walker_cache.blocked::no_mshrs            0                       # number of cycles access was blocked
system.cpu0.dtb_walker_cache.blocked::no_targets            0                       # number of cycles access was blocked
system.cpu0.dtb_walker_cache.avg_blocked_cycles::no_mshrs          nan                       # average number of cycles each access was blocked
system.cpu0.dtb_walker_cache.avg_blocked_cycles::no_targets          nan                       # average number of cycles each access was blocked
system.cpu0.icache.tags.pwrStateResidencyTicks::UNDEFINED 56818658524467                       # Cumulative time (in ticks) in various power states
system.cpu0.icache.tags.replacements           451347                       # number of replacements
system.cpu0.icache.tags.tagsinuse          511.999460                       # Cycle average of tags in use
system.cpu0.icache.tags.total_refs            4261920                       # Total number of references to valid blocks.
system.cpu0.icache.tags.sampled_refs           451859                       # Sample count of references to valid blocks.
system.cpu0.icache.tags.avg_refs             9.431969                       # Average number of references to valid blocks.
system.cpu0.icache.tags.warmup_cycle        286685280                       # Cycle when the warmup percentage was hit.
system.cpu0.icache.tags.occ_blocks::cpu0.inst   511.999460                       # Average occupied blocks per requestor
system.cpu0.icache.tags.occ_percent::cpu0.inst     0.999999                       # Average percentage of cache occupancy
system.cpu0.icache.tags.occ_percent::total     0.999999                       # Average percentage of cache occupancy
system.cpu0.icache.tags.occ_task_id_blocks::1024          512                       # Occupied blocks per task id
system.cpu0.icache.tags.age_task_id_blocks_1024::4          512                       # Occupied blocks per task id
system.cpu0.icache.tags.occ_task_id_percent::1024            1                       # Percentage of cache occupancy per task id
system.cpu0.icache.tags.tag_accesses         38162091                       # Number of tag accesses
system.cpu0.icache.tags.data_accesses        38162091                       # Number of data accesses
system.cpu0.icache.pwrStateResidencyTicks::UNDEFINED 56818658524467                       # Cumulative time (in ticks) in various power states
system.cpu0.icache.ReadReq_hits::cpu0.inst      4261920                       # number of ReadReq hits
system.cpu0.icache.ReadReq_hits::total        4261920                       # number of ReadReq hits
system.cpu0.icache.demand_hits::cpu0.inst      4261920                       # number of demand (read+write) hits
system.cpu0.icache.demand_hits::total         4261920                       # number of demand (read+write) hits
system.cpu0.icache.overall_hits::cpu0.inst      4261920                       # number of overall hits
system.cpu0.icache.overall_hits::total        4261920                       # number of overall hits
system.cpu0.icache.ReadReq_misses::cpu0.inst       451859                       # number of ReadReq misses
system.cpu0.icache.ReadReq_misses::total       451859                       # number of ReadReq misses
system.cpu0.icache.demand_misses::cpu0.inst       451859                       # number of demand (read+write) misses
system.cpu0.icache.demand_misses::total        451859                       # number of demand (read+write) misses
system.cpu0.icache.overall_misses::cpu0.inst       451859                       # number of overall misses
system.cpu0.icache.overall_misses::total       451859                       # number of overall misses
system.cpu0.icache.ReadReq_miss_latency::cpu0.inst  10888694446                       # number of ReadReq miss cycles
system.cpu0.icache.ReadReq_miss_latency::total  10888694446                       # number of ReadReq miss cycles
system.cpu0.icache.demand_miss_latency::cpu0.inst  10888694446                       # number of demand (read+write) miss cycles
system.cpu0.icache.demand_miss_latency::total  10888694446                       # number of demand (read+write) miss cycles
system.cpu0.icache.overall_miss_latency::cpu0.inst  10888694446                       # number of overall miss cycles
system.cpu0.icache.overall_miss_latency::total  10888694446                       # number of overall miss cycles
system.cpu0.icache.ReadReq_accesses::cpu0.inst      4713779                       # number of ReadReq accesses(hits+misses)
system.cpu0.icache.ReadReq_accesses::total      4713779                       # number of ReadReq accesses(hits+misses)
system.cpu0.icache.demand_accesses::cpu0.inst      4713779                       # number of demand (read+write) accesses
system.cpu0.icache.demand_accesses::total      4713779                       # number of demand (read+write) accesses
system.cpu0.icache.overall_accesses::cpu0.inst      4713779                       # number of overall (read+write) accesses
system.cpu0.icache.overall_accesses::total      4713779                       # number of overall (read+write) accesses
system.cpu0.icache.ReadReq_miss_rate::cpu0.inst     0.095859                       # miss rate for ReadReq accesses
system.cpu0.icache.ReadReq_miss_rate::total     0.095859                       # miss rate for ReadReq accesses
system.cpu0.icache.demand_miss_rate::cpu0.inst     0.095859                       # miss rate for demand accesses
system.cpu0.icache.demand_miss_rate::total     0.095859                       # miss rate for demand accesses
system.cpu0.icache.overall_miss_rate::cpu0.inst     0.095859                       # miss rate for overall accesses
system.cpu0.icache.overall_miss_rate::total     0.095859                       # miss rate for overall accesses
system.cpu0.icache.ReadReq_avg_miss_latency::cpu0.inst 24097.549116                       # average ReadReq miss latency
system.cpu0.icache.ReadReq_avg_miss_latency::total 24097.549116                       # average ReadReq miss latency
system.cpu0.icache.demand_avg_miss_latency::cpu0.inst 24097.549116                       # average overall miss latency
system.cpu0.icache.demand_avg_miss_latency::total 24097.549116                       # average overall miss latency
system.cpu0.icache.overall_avg_miss_latency::cpu0.inst 24097.549116                       # average overall miss latency
system.cpu0.icache.overall_avg_miss_latency::total 24097.549116                       # average overall miss latency
system.cpu0.icache.blocked_cycles::no_mshrs            0                       # number of cycles access was blocked
system.cpu0.icache.blocked_cycles::no_targets            0                       # number of cycles access was blocked
system.cpu0.icache.blocked::no_mshrs                0                       # number of cycles access was blocked
system.cpu0.icache.blocked::no_targets              0                       # number of cycles access was blocked
system.cpu0.icache.avg_blocked_cycles::no_mshrs          nan                       # average number of cycles each access was blocked
system.cpu0.icache.avg_blocked_cycles::no_targets          nan                       # average number of cycles each access was blocked
system.cpu0.icache.writebacks::writebacks       451347                       # number of writebacks
system.cpu0.icache.writebacks::total           451347                       # number of writebacks
system.cpu0.icache.ReadReq_mshr_misses::cpu0.inst       451859                       # number of ReadReq MSHR misses
system.cpu0.icache.ReadReq_mshr_misses::total       451859                       # number of ReadReq MSHR misses
system.cpu0.icache.demand_mshr_misses::cpu0.inst       451859                       # number of demand (read+write) MSHR misses
system.cpu0.icache.demand_mshr_misses::total       451859                       # number of demand (read+write) MSHR misses
system.cpu0.icache.overall_mshr_misses::cpu0.inst       451859                       # number of overall MSHR misses
system.cpu0.icache.overall_mshr_misses::total       451859                       # number of overall MSHR misses
system.cpu0.icache.ReadReq_mshr_miss_latency::cpu0.inst  10135897352                       # number of ReadReq MSHR miss cycles
system.cpu0.icache.ReadReq_mshr_miss_latency::total  10135897352                       # number of ReadReq MSHR miss cycles
system.cpu0.icache.demand_mshr_miss_latency::cpu0.inst  10135897352                       # number of demand (read+write) MSHR miss cycles
system.cpu0.icache.demand_mshr_miss_latency::total  10135897352                       # number of demand (read+write) MSHR miss cycles
system.cpu0.icache.overall_mshr_miss_latency::cpu0.inst  10135897352                       # number of overall MSHR miss cycles
system.cpu0.icache.overall_mshr_miss_latency::total  10135897352                       # number of overall MSHR miss cycles
system.cpu0.icache.ReadReq_mshr_miss_rate::cpu0.inst     0.095859                       # mshr miss rate for ReadReq accesses
system.cpu0.icache.ReadReq_mshr_miss_rate::total     0.095859                       # mshr miss rate for ReadReq accesses
system.cpu0.icache.demand_mshr_miss_rate::cpu0.inst     0.095859                       # mshr miss rate for demand accesses
system.cpu0.icache.demand_mshr_miss_rate::total     0.095859                       # mshr miss rate for demand accesses
system.cpu0.icache.overall_mshr_miss_rate::cpu0.inst     0.095859                       # mshr miss rate for overall accesses
system.cpu0.icache.overall_mshr_miss_rate::total     0.095859                       # mshr miss rate for overall accesses
system.cpu0.icache.ReadReq_avg_mshr_miss_latency::cpu0.inst 22431.549116                       # average ReadReq mshr miss latency
system.cpu0.icache.ReadReq_avg_mshr_miss_latency::total 22431.549116                       # average ReadReq mshr miss latency
system.cpu0.icache.demand_avg_mshr_miss_latency::cpu0.inst 22431.549116                       # average overall mshr miss latency
system.cpu0.icache.demand_avg_mshr_miss_latency::total 22431.549116                       # average overall mshr miss latency
system.cpu0.icache.overall_avg_mshr_miss_latency::cpu0.inst 22431.549116                       # average overall mshr miss latency
system.cpu0.icache.overall_avg_mshr_miss_latency::total 22431.549116                       # average overall mshr miss latency
system.cpu0.itb_walker_cache.tags.pwrStateResidencyTicks::UNDEFINED 56818658524467                       # Cumulative time (in ticks) in various power states
system.cpu0.itb_walker_cache.tags.replacements            0                       # number of replacements
system.cpu0.itb_walker_cache.tags.tagsinuse            0                       # Cycle average of tags in use
system.cpu0.itb_walker_cache.tags.total_refs            0                       # Total number of references to valid blocks.
system.cpu0.itb_walker_cache.tags.sampled_refs            0                       # Sample count of references to valid blocks.
system.cpu0.itb_walker_cache.tags.avg_refs          nan                       # Average number of references to valid blocks.
system.cpu0.itb_walker_cache.tags.warmup_cycle            0                       # Cycle when the warmup percentage was hit.
system.cpu0.itb_walker_cache.tags.tag_accesses            0                       # Number of tag accesses
system.cpu0.itb_walker_cache.tags.data_accesses            0                       # Number of data accesses
system.cpu0.itb_walker_cache.pwrStateResidencyTicks::UNDEFINED 56818658524467                       # Cumulative time (in ticks) in various power states
system.cpu0.itb_walker_cache.blocked_cycles::no_mshrs            0                       # number of cycles access was blocked
system.cpu0.itb_walker_cache.blocked_cycles::no_targets            0                       # number of cycles access was blocked
system.cpu0.itb_walker_cache.blocked::no_mshrs            0                       # number of cycles access was blocked
system.cpu0.itb_walker_cache.blocked::no_targets            0                       # number of cycles access was blocked
system.cpu0.itb_walker_cache.avg_blocked_cycles::no_mshrs          nan                       # average number of cycles each access was blocked
system.cpu0.itb_walker_cache.avg_blocked_cycles::no_targets          nan                       # average number of cycles each access was blocked
system.cpu1.branchPred.lookups                     18                       # Number of BP lookups
system.cpu1.branchPred.condPredicted               18                       # Number of conditional branches predicted
system.cpu1.branchPred.condIncorrect               11                       # Number of conditional branches incorrect
system.cpu1.branchPred.BTBLookups                  11                       # Number of BTB lookups
system.cpu1.branchPred.BTBHits                      0                       # Number of BTB hits
system.cpu1.branchPred.BTBCorrect                   0                       # Number of correct BTB predictions (this stat may not work properly.
system.cpu1.branchPred.BTBHitPct             0.000000                       # BTB Hit Percentage
system.cpu1.branchPred.usedRAS                      0                       # Number of times the RAS was used to get a target.
system.cpu1.branchPred.RASInCorrect                 0                       # Number of incorrect RAS predictions.
system.cpu1.branchPred.indirectLookups             11                       # Number of indirect predictor lookups.
system.cpu1.branchPred.indirectHits                 0                       # Number of indirect target hits.
system.cpu1.branchPred.indirectMisses              11                       # Number of indirect misses.
system.cpu1.branchPredindirectMispredicted            4                       # Number of mispredicted indirect branches.
system.cpu1.dtb.walker.pwrStateResidencyTicks::UNDEFINED 56818658524467                       # Cumulative time (in ticks) in various power states
system.cpu1.apic_clk_domain.clock               13328                       # Clock period in ticks
system.cpu1.interrupts.pwrStateResidencyTicks::UNDEFINED 56818658524467                       # Cumulative time (in ticks) in various power states
system.cpu1.itb.walker.pwrStateResidencyTicks::UNDEFINED 56818658524467                       # Cumulative time (in ticks) in various power states
system.cpu1.workload.num_syscalls                  11                       # Number of system calls
system.cpu1.pwrStateResidencyTicks::ON   56818658524467                       # Cumulative time (in ticks) in various power states
system.cpu1.numCycles                       958108158                       # number of cpu cycles simulated
system.cpu1.numWorkItemsStarted                     0                       # number of work items this cpu started
system.cpu1.numWorkItemsCompleted                   0                       # number of work items this cpu completed
system.cpu1.committedInsts                  252905492                       # Number of instructions committed
system.cpu1.committedOps                    409459607                       # Number of ops (including micro ops) committed
system.cpu1.discardedOps                    137057766                       # Number of ops (including micro ops) which were discarded before commit
system.cpu1.numFetchSuspends                        0                       # Number of times Execute suspended instruction fetching
system.cpu1.cpi                              3.788404                       # CPI: cycles per instruction
system.cpu1.ipc                              0.263963                       # IPC: instructions per cycle
system.cpu1.op_class_0::No_OpClass             294370      0.07%      0.07% # Class of committed instruction
system.cpu1.op_class_0::IntAlu              363078416     88.67%     88.74% # Class of committed instruction
system.cpu1.op_class_0::IntMult                 31165      0.01%     88.75% # Class of committed instruction
system.cpu1.op_class_0::IntDiv                   2828      0.00%     88.75% # Class of committed instruction
system.cpu1.op_class_0::FloatAdd              2370841      0.58%     89.33% # Class of committed instruction
system.cpu1.op_class_0::FloatCmp                    0      0.00%     89.33% # Class of committed instruction
system.cpu1.op_class_0::FloatCvt                    0      0.00%     89.33% # Class of committed instruction
system.cpu1.op_class_0::FloatMult                   0      0.00%     89.33% # Class of committed instruction
system.cpu1.op_class_0::FloatMultAcc                0      0.00%     89.33% # Class of committed instruction
system.cpu1.op_class_0::FloatDiv                    0      0.00%     89.33% # Class of committed instruction
system.cpu1.op_class_0::FloatMisc                   0      0.00%     89.33% # Class of committed instruction
system.cpu1.op_class_0::FloatSqrt                 110      0.00%     89.33% # Class of committed instruction
system.cpu1.op_class_0::SimdAdd                     0      0.00%     89.33% # Class of committed instruction
system.cpu1.op_class_0::SimdAddAcc                  0      0.00%     89.33% # Class of committed instruction
system.cpu1.op_class_0::SimdAlu                     0      0.00%     89.33% # Class of committed instruction
system.cpu1.op_class_0::SimdCmp                     0      0.00%     89.33% # Class of committed instruction
system.cpu1.op_class_0::SimdCvt                     0      0.00%     89.33% # Class of committed instruction
[...]
system.l2.demand_mshr_miss_rate::cpu0.inst     0.025787                       # mshr miss rate for demand accesses
system.l2.demand_mshr_miss_rate::cpu0.data     0.161537                       # mshr miss rate for demand accesses
system.l2.demand_mshr_miss_rate::cpu1.inst     0.949861                       # mshr miss rate for demand accesses
system.l2.demand_mshr_miss_rate::cpu1.data     0.000349                       # mshr miss rate for demand accesses
system.l2.demand_mshr_miss_rate::cpu2.inst     0.898393                       # mshr miss rate for demand accesses
system.l2.demand_mshr_miss_rate::cpu2.data     0.007443                       # mshr miss rate for demand accesses
system.l2.demand_mshr_miss_rate::cpu3.inst     0.009497                       # mshr miss rate for demand accesses
system.l2.demand_mshr_miss_rate::cpu3.data     0.101019                       # mshr miss rate for demand accesses
system.l2.demand_mshr_miss_rate::total       0.008637                       # mshr miss rate for demand accesses
system.l2.overall_mshr_miss_rate::cpu0.inst     0.025787                       # mshr miss rate for overall accesses
system.l2.overall_mshr_miss_rate::cpu0.data     0.161537                       # mshr miss rate for overall accesses
system.l2.overall_mshr_miss_rate::cpu1.inst     0.949861                       # mshr miss rate for overall accesses
system.l2.overall_mshr_miss_rate::cpu1.data     0.000349                       # mshr miss rate for overall accesses
system.l2.overall_mshr_miss_rate::cpu2.inst     0.898393                       # mshr miss rate for overall accesses
system.l2.overall_mshr_miss_rate::cpu2.data     0.007443                       # mshr miss rate for overall accesses
system.l2.overall_mshr_miss_rate::cpu3.inst     0.009497                       # mshr miss rate for overall accesses
system.l2.overall_mshr_miss_rate::cpu3.data     0.101019                       # mshr miss rate for overall accesses
system.l2.overall_mshr_miss_rate::total      0.008637                       # mshr miss rate for overall accesses
system.l2.ReadExReq_avg_mshr_miss_latency::cpu0.data 96201.044241                       # average ReadExReq mshr miss latency
system.l2.ReadExReq_avg_mshr_miss_latency::cpu1.data 86879.987794                       # average ReadExReq mshr miss latency
system.l2.ReadExReq_avg_mshr_miss_latency::cpu2.data 118787.944647                       # average ReadExReq mshr miss latency
system.l2.ReadExReq_avg_mshr_miss_latency::cpu3.data 100390.119810                       # average ReadExReq mshr miss latency
system.l2.ReadExReq_avg_mshr_miss_latency::total 114514.473330                       # average ReadExReq mshr miss latency
system.l2.ReadCleanReq_avg_mshr_miss_latency::cpu0.inst 90331.674734                       # average ReadCleanReq mshr miss latency
system.l2.ReadCleanReq_avg_mshr_miss_latency::cpu1.inst 96773.038123                       # average ReadCleanReq mshr miss latency
system.l2.ReadCleanReq_avg_mshr_miss_latency::cpu2.inst 98610.550024                       # average ReadCleanReq mshr miss latency
system.l2.ReadCleanReq_avg_mshr_miss_latency::cpu3.inst 92512.249556                       # average ReadCleanReq mshr miss latency
system.l2.ReadCleanReq_avg_mshr_miss_latency::total 92356.673936                       # average ReadCleanReq mshr miss latency
system.l2.ReadSharedReq_avg_mshr_miss_latency::cpu0.data 100051.800850                       # average ReadSharedReq mshr miss latency
system.l2.ReadSharedReq_avg_mshr_miss_latency::cpu1.data 133196.543379                       # average ReadSharedReq mshr miss latency
system.l2.ReadSharedReq_avg_mshr_miss_latency::cpu2.data 156912.561817                       # average ReadSharedReq mshr miss latency
system.l2.ReadSharedReq_avg_mshr_miss_latency::cpu3.data 114399.802372                       # average ReadSharedReq mshr miss latency
system.l2.ReadSharedReq_avg_mshr_miss_latency::total 153073.865631                       # average ReadSharedReq mshr miss latency
system.l2.demand_avg_mshr_miss_latency::cpu0.inst 90331.674734                       # average overall mshr miss latency
system.l2.demand_avg_mshr_miss_latency::cpu0.data 97639.102432                       # average overall mshr miss latency
system.l2.demand_avg_mshr_miss_latency::cpu1.inst 96773.038123                       # average overall mshr miss latency
system.l2.demand_avg_mshr_miss_latency::cpu1.data 91052.478815                       # average overall mshr miss latency
system.l2.demand_avg_mshr_miss_latency::cpu2.inst 98610.550024                       # average overall mshr miss latency
system.l2.demand_avg_mshr_miss_latency::cpu2.data 139609.239765                       # average overall mshr miss latency
system.l2.demand_avg_mshr_miss_latency::cpu3.inst 92512.249556                       # average overall mshr miss latency
system.l2.demand_avg_mshr_miss_latency::cpu3.data 104327.583445                       # average overall mshr miss latency
system.l2.demand_avg_mshr_miss_latency::total 133424.351675                       # average overall mshr miss latency
system.l2.overall_avg_mshr_miss_latency::cpu0.inst 90331.674734                       # average overall mshr miss latency
system.l2.overall_avg_mshr_miss_latency::cpu0.data 97639.102432                       # average overall mshr miss latency
system.l2.overall_avg_mshr_miss_latency::cpu1.inst 96773.038123                       # average overall mshr miss latency
system.l2.overall_avg_mshr_miss_latency::cpu1.data 91052.478815                       # average overall mshr miss latency
system.l2.overall_avg_mshr_miss_latency::cpu2.inst 98610.550024                       # average overall mshr miss latency
system.l2.overall_avg_mshr_miss_latency::cpu2.data 139609.239765                       # average overall mshr miss latency
system.l2.overall_avg_mshr_miss_latency::cpu3.inst 92512.249556                       # average overall mshr miss latency
system.l2.overall_avg_mshr_miss_latency::cpu3.data 104327.583445                       # average overall mshr miss latency
system.l2.overall_avg_mshr_miss_latency::total 133424.351675                       # average overall mshr miss latency
system.membus.snoop_filter.tot_requests       8449662                       # Total number of requests made to the snoop filter.
system.membus.snoop_filter.hit_single_requests      4215228                       # Number of requests hitting in the snoop filter with a single holder of the requested data.
system.membus.snoop_filter.hit_multi_requests            0                       # Number of requests hitting in the snoop filter with multiple (>1) holders of the requested data.
system.membus.snoop_filter.tot_snoops               0                       # Total number of snoops made to the snoop filter.
system.membus.snoop_filter.hit_single_snoops            0                       # Number of snoops hitting in the snoop filter with a single holder of the requested data.
system.membus.snoop_filter.hit_multi_snoops            0                       # Number of snoops hitting in the snoop filter with multiple (>1) holders of the requested data.
system.membus.pwrStateResidencyTicks::UNDEFINED 56818658524467                       # Cumulative time (in ticks) in various power states
system.membus.trans_dist::ReadResp            2161948                       # Transaction distribution
system.membus.trans_dist::WritebackDirty      3547670                       # Transaction distribution
system.membus.trans_dist::CleanEvict           667557                       # Transaction distribution
system.membus.trans_dist::ReadExReq           2072487                       # Transaction distribution
system.membus.trans_dist::ReadExResp          2072487                       # Transaction distribution
system.membus.trans_dist::ReadSharedReq       2161948                       # Transaction distribution
system.membus.pkt_count_system.l2.mem_side::system.mem_ctrls.port     12684097                       # Packet count per connected master and slave (bytes)
system.membus.pkt_count_system.l2.mem_side::total     12684097                       # Packet count per connected master and slave (bytes)
system.membus.pkt_count::total               12684097                       # Packet count per connected master and slave (bytes)
system.membus.pkt_size_system.l2.mem_side::system.mem_ctrls.port    498054720                       # Cumulative packet size per connected master and slave (bytes)
system.membus.pkt_size_system.l2.mem_side::total    498054720                       # Cumulative packet size per connected master and slave (bytes)
system.membus.pkt_size::total               498054720                       # Cumulative packet size per connected master and slave (bytes)
system.membus.snoops                                0                       # Total snoops (count)
system.membus.snoopTraffic                          0                       # Total snoop traffic (bytes)
system.membus.snoop_fanout::samples           4234435                       # Request fanout histogram
system.membus.snoop_fanout::mean                    0                       # Request fanout histogram
system.membus.snoop_fanout::stdev                   0                       # Request fanout histogram
system.membus.snoop_fanout::underflows              0      0.00%      0.00% # Request fanout histogram
system.membus.snoop_fanout::0                 4234435    100.00%    100.00% # Request fanout histogram
system.membus.snoop_fanout::1                       0      0.00%    100.00% # Request fanout histogram
system.membus.snoop_fanout::overflows               0      0.00%    100.00% # Request fanout histogram
system.membus.snoop_fanout::min_value               0                       # Request fanout histogram
system.membus.snoop_fanout::max_value               0                       # Request fanout histogram
system.membus.snoop_fanout::total             4234435                       # Request fanout histogram
system.membus.reqLayer8.occupancy         26874765305                       # Layer occupancy (ticks)
system.membus.reqLayer8.utilization               0.0                       # Layer utilization (%)
system.membus.respLayer1.occupancy        22760557037                       # Layer occupancy (ticks)
system.membus.respLayer1.utilization              0.0                       # Layer utilization (%)
system.tol2bus.snoop_filter.tot_requests    980525534                       # Total number of requests made to the snoop filter.
system.tol2bus.snoop_filter.hit_single_requests    490260978                       # Number of requests hitting in the snoop filter with a single holder of the requested data.
system.tol2bus.snoop_filter.hit_multi_requests         1067                       # Number of requests hitting in the snoop filter with multiple (>1) holders of the requested data.
system.tol2bus.snoop_filter.tot_snoops          16567                       # Total number of snoops made to the snoop filter.
system.tol2bus.snoop_filter.hit_single_snoops        16564                       # Number of snoops hitting in the snoop filter with a single holder of the requested data.
system.tol2bus.snoop_filter.hit_multi_snoops            3                       # Number of snoops hitting in the snoop filter with multiple (>1) holders of the requested data.
system.tol2bus.pwrStateResidencyTicks::UNDEFINED 56818658524467                       # Cumulative time (in ticks) in various power states
system.tol2bus.trans_dist::ReadResp         348577690                       # Transaction distribution
system.tol2bus.trans_dist::WritebackDirty    342119106                       # Transaction distribution
system.tol2bus.trans_dist::WritebackClean      4607523                       # Transaction distribution
system.tol2bus.trans_dist::CleanEvict       147765242                       # Transaction distribution
system.tol2bus.trans_dist::ReadExReq        141686869                       # Transaction distribution
system.tol2bus.trans_dist::ReadExResp       141686869                       # Transaction distribution
system.tol2bus.trans_dist::ReadCleanReq       4609571                       # Transaction distribution
system.tol2bus.trans_dist::ReadSharedReq    343968119                       # Transaction distribution
system.tol2bus.pkt_count_system.cpu0.icache.mem_side::system.l2.cpu_side      1355065                       # Packet count per connected master and slave (bytes)
system.tol2bus.pkt_count_system.cpu0.dcache.mem_side::system.l2.cpu_side       327237                       # Packet count per connected master and slave (bytes)
system.tol2bus.pkt_count_system.cpu1.icache.mem_side::system.l2.cpu_side         2719                       # Packet count per connected master and slave (bytes)
system.tol2bus.pkt_count_system.cpu1.dcache.mem_side::system.l2.cpu_side     20881479                       # Packet count per connected master and slave (bytes)
system.tol2bus.pkt_count_system.cpu2.icache.mem_side::system.l2.cpu_side         6397                       # Packet count per connected master and slave (bytes)
system.tol2bus.pkt_count_system.cpu2.dcache.mem_side::system.l2.cpu_side   1416588921                       # Packet count per connected master and slave (bytes)
system.tol2bus.pkt_count_system.cpu3.icache.mem_side::system.l2.cpu_side     12462484                       # Packet count per connected master and slave (bytes)
system.tol2bus.pkt_count_system.cpu3.dcache.mem_side::system.l2.cpu_side     19165791                       # Packet count per connected master and slave (bytes)
system.tol2bus.pkt_count::total            1470790093                       # Packet count per connected master and slave (bytes)
system.tol2bus.pkt_size_system.cpu0.icache.mem_side::system.l2.cpu_side     57805184                       # Cumulative packet size per connected master and slave (bytes)
system.tol2bus.pkt_size_system.cpu0.dcache.mem_side::system.l2.cpu_side     11040576                       # Cumulative packet size per connected master and slave (bytes)
system.tol2bus.pkt_size_system.cpu1.icache.mem_side::system.l2.cpu_side       105088                       # Cumulative packet size per connected master and slave (bytes)
system.tol2bus.pkt_size_system.cpu1.dcache.mem_side::system.l2.cpu_side    890895488                       # Cumulative packet size per connected master and slave (bytes)
system.tol2bus.pkt_size_system.cpu2.icache.mem_side::system.l2.cpu_side       262016                       # Cumulative packet size per connected master and slave (bytes)
system.tol2bus.pkt_size_system.cpu2.dcache.mem_side::system.l2.cpu_side  51145924992                       # Cumulative packet size per connected master and slave (bytes)
system.tol2bus.pkt_size_system.cpu3.icache.mem_side::system.l2.cpu_side    531721728                       # Cumulative packet size per connected master and slave (bytes)
system.tol2bus.pkt_size_system.cpu3.dcache.mem_side::system.l2.cpu_side    702630016                       # Cumulative packet size per connected master and slave (bytes)
system.tol2bus.pkt_size::total            53340385088                       # Cumulative packet size per connected master and slave (bytes)
system.tol2bus.snoops                         4230896                       # Total snoops (count)
system.tol2bus.snoopTraffic                 227050944                       # Total snoop traffic (bytes)
system.tol2bus.snoop_fanout::samples        494495455                       # Request fanout histogram
system.tol2bus.snoop_fanout::mean            0.000036                       # Request fanout histogram
system.tol2bus.snoop_fanout::stdev           0.005974                       # Request fanout histogram
system.tol2bus.snoop_fanout::underflows             0      0.00%      0.00% # Request fanout histogram
system.tol2bus.snoop_fanout::0              494477818    100.00%    100.00% # Request fanout histogram
system.tol2bus.snoop_fanout::1                  17634      0.00%    100.00% # Request fanout histogram
system.tol2bus.snoop_fanout::2                      3      0.00%    100.00% # Request fanout histogram
system.tol2bus.snoop_fanout::3                      0      0.00%    100.00% # Request fanout histogram
system.tol2bus.snoop_fanout::4                      0      0.00%    100.00% # Request fanout histogram
system.tol2bus.snoop_fanout::5                      0      0.00%    100.00% # Request fanout histogram
system.tol2bus.snoop_fanout::6                      0      0.00%    100.00% # Request fanout histogram
system.tol2bus.snoop_fanout::7                      0      0.00%    100.00% # Request fanout histogram
system.tol2bus.snoop_fanout::8                      0      0.00%    100.00% # Request fanout histogram
system.tol2bus.snoop_fanout::9                      0      0.00%    100.00% # Request fanout histogram
system.tol2bus.snoop_fanout::10                     0      0.00%    100.00% # Request fanout histogram
system.tol2bus.snoop_fanout::11                     0      0.00%    100.00% # Request fanout histogram
system.tol2bus.snoop_fanout::12                     0      0.00%    100.00% # Request fanout histogram
system.tol2bus.snoop_fanout::13                     0      0.00%    100.00% # Request fanout histogram
system.tol2bus.snoop_fanout::14                     0      0.00%    100.00% # Request fanout histogram
system.tol2bus.snoop_fanout::15                     0      0.00%    100.00% # Request fanout histogram
system.tol2bus.snoop_fanout::16                     0      0.00%    100.00% # Request fanout histogram
system.tol2bus.snoop_fanout::overflows              0      0.00%    100.00% # Request fanout histogram
system.tol2bus.snoop_fanout::min_value              0                       # Request fanout histogram
system.tol2bus.snoop_fanout::max_value              2                       # Request fanout histogram
system.tol2bus.snoop_fanout::total          494495455                       # Request fanout histogram
system.tol2bus.reqLayer0.occupancy       1388513913850                       # Layer occupancy (ticks)
system.tol2bus.reqLayer0.utilization              2.4                       # Layer utilization (%)
system.tol2bus.respLayer0.occupancy        1129353720                       # Layer occupancy (ticks)
system.tol2bus.respLayer0.utilization             0.0                       # Layer utilization (%)
system.tol2bus.respLayer1.occupancy         273135429                       # Layer occupancy (ticks)
system.tol2bus.respLayer1.utilization             0.0                       # Layer utilization (%)
system.tol2bus.respLayer4.occupancy           2693919                       # Layer occupancy (ticks)
system.tol2bus.respLayer4.utilization             0.0                       # Layer utilization (%)
system.tol2bus.respLayer5.occupancy       17395084420                       # Layer occupancy (ticks)
system.tol2bus.respLayer5.utilization             0.0                       # Layer utilization (%)
system.tol2bus.respLayer8.occupancy           5761021                       # Layer occupancy (ticks)
system.tol2bus.respLayer8.utilization             0.0                       # Layer utilization (%)
system.tol2bus.respLayer9.occupancy      1180025920631                       # Layer occupancy (ticks)
system.tol2bus.respLayer9.utilization             2.1                       # Layer utilization (%)
system.tol2bus.respLayer12.occupancy      10382065040                       # Layer occupancy (ticks)
system.tol2bus.respLayer12.utilization            0.0                       # Layer utilization (%)
system.tol2bus.respLayer13.occupancy      15970834271                       # Layer occupancy (ticks)
system.tol2bus.respLayer13.utilization            0.0                       # Layer utilization (%)

---------- End Simulation Statistics   ----------
