gem5 Simulator System.  http://gem5.org
gem5 is copyrighted software; use the --copyright option for details.

gem5 compiled Nov 27 2016 12:46:38
gem5 started Dec  7 2016 03:08:14
gem5 executing on big.cerc.utexas.edu, pid 14795
command line: build/X86/gem5.fast -r --outdir=output/multiCore/cacheUpdate/perlbench configs/example/multiCore.py '--cmd=../../../big/rrip/cpu2006/benchspec/CPU2006/400.perlbench/exe/perlbench_base.amd64-m64-gcc42-nn;../../../big/rrip/cpu2006/benchspec/CPU2006/400.perlbench/exe/perlbench_base.amd64-m64-gcc42-nn;../../../big/rrip/cpu2006/benchspec/CPU2006/400.perlbench/exe/perlbench_base.amd64-m64-gcc42-nn;../../../big/rrip/cpu2006/benchspec/CPU2006/400.perlbench/exe/perlbench_base.amd64-m64-gcc42-nn' '--options=-I../../../big/rrip/cpu2006/benchspec/CPU2006/400.perlbench/run/run_base_test_amd64-m64-gcc42-nn.0000 -I../../../big/rrip/cpu2006/benchspec/CPU2006/400.perlbench/run/run_base_test_amd64-m64-gcc42-nn.0000/lib ../../../big/rrip/cpu2006/benchspec/CPU2006/400.perlbench/run/run_base_test_amd64-m64-gcc42-nn.0000/attrs.pl;-I../../../big/rrip/cpu2006/benchspec/CPU2006/400.perlbench/run/run_base_test_amd64-m64-gcc42-nn.0000 -I../../../big/rrip/cpu2006/benchspec/CPU2006/400.perlbench/run/run_base_test_amd64-m64-gcc42-nn.0000/lib ../../../big/rrip/cpu2006/benchspec/CPU2006/400.perlbench/run/run_base_test_amd64-m64-gcc42-nn.0000/attrs.pl;-I../../../big/rrip/cpu2006/benchspec/CPU2006/400.perlbench/run/run_base_test_amd64-m64-gcc42-nn.0000 -I../../../big/rrip/cpu2006/benchspec/CPU2006/400.perlbench/run/run_base_test_amd64-m64-gcc42-nn.0000/lib ../../../big/rrip/cpu2006/benchspec/CPU2006/400.perlbench/run/run_base_test_amd64-m64-gcc42-nn.0000/attrs.pl;-I../../../big/rrip/cpu2006/benchspec/CPU2006/400.perlbench/run/run_base_test_amd64-m64-gcc42-nn.0000 -I../../../big/rrip/cpu2006/benchspec/CPU2006/400.perlbench/run/run_base_test_amd64-m64-gcc42-nn.0000/lib ../../../big/rrip/cpu2006/benchspec/CPU2006/400.perlbench/run/run_base_test_amd64-m64-gcc42-nn.0000/attrs.pl;' '--output=output/singleCore-1gb/perlbench/perlbench.out1;output/singleCore-1gb/perlbench/perlbench.out2;output/singleCore-1gb/perlbench/perlbench.out3;output/singleCore-1gb/perlbench/perlbench.out4' --cpu-type=minor --caches --l2cache --num-cpus=4 --mem-size=4GB

Global frequency set at 1000000000000 ticks per second
warn: DRAM device capacity (8192 Mbytes) does not match the address range assigned (4096 Mbytes)
0: system.remote_gdb.listener: listening for remote gdb on port 7060
0: system.remote_gdb.listener: listening for remote gdb on port 7061
0: system.remote_gdb.listener: listening for remote gdb on port 7062
0: system.remote_gdb.listener: listening for remote gdb on port 7063
warn: ClockedObject: More than one power state change request encountered within the same simulation tick
warn: ClockedObject: More than one power state change request encountered within the same simulation tick
warn: ClockedObject: More than one power state change request encountered within the same simulation tick
warn: ClockedObject: More than one power state change request encountered within the same simulation tick
**** REAL SIMULATION ****
info: Entering event queue @ 0.  Starting simulation...
info: Increasing stack size by one page.
info: Increasing stack size by one page.
info: Increasing stack size by one page.
info: Increasing stack size by one page.
info: Increasing stack size by one page.
info: Increasing stack size by one page.
info: Increasing stack size by one page.
info: Increasing stack size by one page.
info: Increasing stack size by one page.
info: Increasing stack size by one page.
info: Increasing stack size by one page.
info: Increasing stack size by one page.
Exiting @ tick 52554874638 because target called exit()
