
---------- Begin Simulation Statistics ----------
sim_seconds                                  0.000000                       # Number of seconds simulated
sim_ticks                                      207417                       # Number of ticks simulated
final_tick                                     207417                       # Number of ticks from beginning of simulation (restored from checkpoints and never reset)
sim_freq                                 1000000000000                       # Frequency of simulated ticks
host_inst_rate                                   1908                       # Simulator instruction rate (inst/s)
host_op_rate                                     3491                       # Simulator op (including micro ops) rate (op/s)
host_tick_rate                               13141138                       # Simulator tick rate (ticks/s)
host_mem_usage                                4509104                       # Number of bytes of host memory used
host_seconds                                     0.02                       # Real time elapsed on the host
sim_insts                                          30                       # Number of instructions simulated
sim_ops                                            55                       # Number of ops (including micro ops) simulated
system.voltage_domain.voltage                       1                       # Voltage in Volts
system.clk_domain.clock                          1000                       # Clock period in ticks
system.mem_ctrls.pwrStateResidencyTicks::UNDEFINED       207417                       # Cumulative time (in ticks) in various power states
system.mem_ctrls.bytes_read::cpu0.inst             64                       # Number of bytes read from this memory
system.mem_ctrls.bytes_read::cpu1.inst             64                       # Number of bytes read from this memory
system.mem_ctrls.bytes_read::cpu2.inst             64                       # Number of bytes read from this memory
system.mem_ctrls.bytes_read::cpu3.inst             64                       # Number of bytes read from this memory
system.mem_ctrls.bytes_read::switch_cpus0.inst           64                       # Number of bytes read from this memory
system.mem_ctrls.bytes_read::switch_cpus0.data           64                       # Number of bytes read from this memory
system.mem_ctrls.bytes_read::switch_cpus1.inst           64                       # Number of bytes read from this memory
system.mem_ctrls.bytes_read::switch_cpus1.data           64                       # Number of bytes read from this memory
system.mem_ctrls.bytes_read::switch_cpus2.inst           64                       # Number of bytes read from this memory
system.mem_ctrls.bytes_read::switch_cpus2.data           64                       # Number of bytes read from this memory
system.mem_ctrls.bytes_read::switch_cpus3.inst           64                       # Number of bytes read from this memory
system.mem_ctrls.bytes_read::switch_cpus3.data           64                       # Number of bytes read from this memory
system.mem_ctrls.bytes_read::total                768                       # Number of bytes read from this memory
system.mem_ctrls.bytes_inst_read::cpu0.inst           64                       # Number of instructions bytes read from this memory
system.mem_ctrls.bytes_inst_read::cpu1.inst           64                       # Number of instructions bytes read from this memory
system.mem_ctrls.bytes_inst_read::cpu2.inst           64                       # Number of instructions bytes read from this memory
system.mem_ctrls.bytes_inst_read::cpu3.inst           64                       # Number of instructions bytes read from this memory
system.mem_ctrls.bytes_inst_read::switch_cpus0.inst           64                       # Number of instructions bytes read from this memory
system.mem_ctrls.bytes_inst_read::switch_cpus1.inst           64                       # Number of instructions bytes read from this memory
system.mem_ctrls.bytes_inst_read::switch_cpus2.inst           64                       # Number of instructions bytes read from this memory
system.mem_ctrls.bytes_inst_read::switch_cpus3.inst           64                       # Number of instructions bytes read from this memory
system.mem_ctrls.bytes_inst_read::total           512                       # Number of instructions bytes read from this memory
system.mem_ctrls.num_reads::cpu0.inst               1                       # Number of read requests responded to by this memory
system.mem_ctrls.num_reads::cpu1.inst               1                       # Number of read requests responded to by this memory
system.mem_ctrls.num_reads::cpu2.inst               1                       # Number of read requests responded to by this memory
system.mem_ctrls.num_reads::cpu3.inst               1                       # Number of read requests responded to by this memory
system.mem_ctrls.num_reads::switch_cpus0.inst            1                       # Number of read requests responded to by this memory
system.mem_ctrls.num_reads::switch_cpus0.data            1                       # Number of read requests responded to by this memory
system.mem_ctrls.num_reads::switch_cpus1.inst            1                       # Number of read requests responded to by this memory
system.mem_ctrls.num_reads::switch_cpus1.data            1                       # Number of read requests responded to by this memory
system.mem_ctrls.num_reads::switch_cpus2.inst            1                       # Number of read requests responded to by this memory
system.mem_ctrls.num_reads::switch_cpus2.data            1                       # Number of read requests responded to by this memory
system.mem_ctrls.num_reads::switch_cpus3.inst            1                       # Number of read requests responded to by this memory
system.mem_ctrls.num_reads::switch_cpus3.data            1                       # Number of read requests responded to by this memory
system.mem_ctrls.num_reads::total                  12                       # Number of read requests responded to by this memory
system.mem_ctrls.bw_read::cpu0.inst         308557158                       # Total read bandwidth from this memory (bytes/s)
system.mem_ctrls.bw_read::cpu1.inst         308557158                       # Total read bandwidth from this memory (bytes/s)
system.mem_ctrls.bw_read::cpu2.inst         308557158                       # Total read bandwidth from this memory (bytes/s)
system.mem_ctrls.bw_read::cpu3.inst         308557158                       # Total read bandwidth from this memory (bytes/s)
system.mem_ctrls.bw_read::switch_cpus0.inst    308557158                       # Total read bandwidth from this memory (bytes/s)
system.mem_ctrls.bw_read::switch_cpus0.data    308557158                       # Total read bandwidth from this memory (bytes/s)
system.mem_ctrls.bw_read::switch_cpus1.inst    308557158                       # Total read bandwidth from this memory (bytes/s)
system.mem_ctrls.bw_read::switch_cpus1.data    308557158                       # Total read bandwidth from this memory (bytes/s)
system.mem_ctrls.bw_read::switch_cpus2.inst    308557158                       # Total read bandwidth from this memory (bytes/s)
system.mem_ctrls.bw_read::switch_cpus2.data    308557158                       # Total read bandwidth from this memory (bytes/s)
system.mem_ctrls.bw_read::switch_cpus3.inst    308557158                       # Total read bandwidth from this memory (bytes/s)
system.mem_ctrls.bw_read::switch_cpus3.data    308557158                       # Total read bandwidth from this memory (bytes/s)
system.mem_ctrls.bw_read::total            3702685894                       # Total read bandwidth from this memory (bytes/s)
system.mem_ctrls.bw_inst_read::cpu0.inst    308557158                       # Instruction read bandwidth from this memory (bytes/s)
system.mem_ctrls.bw_inst_read::cpu1.inst    308557158                       # Instruction read bandwidth from this memory (bytes/s)
system.mem_ctrls.bw_inst_read::cpu2.inst    308557158                       # Instruction read bandwidth from this memory (bytes/s)
system.mem_ctrls.bw_inst_read::cpu3.inst    308557158                       # Instruction read bandwidth from this memory (bytes/s)
system.mem_ctrls.bw_inst_read::switch_cpus0.inst    308557158                       # Instruction read bandwidth from this memory (bytes/s)
system.mem_ctrls.bw_inst_read::switch_cpus1.inst    308557158                       # Instruction read bandwidth from this memory (bytes/s)
system.mem_ctrls.bw_inst_read::switch_cpus2.inst    308557158                       # Instruction read bandwidth from this memory (bytes/s)
system.mem_ctrls.bw_inst_read::switch_cpus3.inst    308557158                       # Instruction read bandwidth from this memory (bytes/s)
system.mem_ctrls.bw_inst_read::total       2468457262                       # Instruction read bandwidth from this memory (bytes/s)
system.mem_ctrls.bw_total::cpu0.inst        308557158                       # Total bandwidth to/from this memory (bytes/s)
system.mem_ctrls.bw_total::cpu1.inst        308557158                       # Total bandwidth to/from this memory (bytes/s)
system.mem_ctrls.bw_total::cpu2.inst        308557158                       # Total bandwidth to/from this memory (bytes/s)
system.mem_ctrls.bw_total::cpu3.inst        308557158                       # Total bandwidth to/from this memory (bytes/s)
system.mem_ctrls.bw_total::switch_cpus0.inst    308557158                       # Total bandwidth to/from this memory (bytes/s)
system.mem_ctrls.bw_total::switch_cpus0.data    308557158                       # Total bandwidth to/from this memory (bytes/s)
system.mem_ctrls.bw_total::switch_cpus1.inst    308557158                       # Total bandwidth to/from this memory (bytes/s)
system.mem_ctrls.bw_total::switch_cpus1.data    308557158                       # Total bandwidth to/from this memory (bytes/s)
system.mem_ctrls.bw_total::switch_cpus2.inst    308557158                       # Total bandwidth to/from this memory (bytes/s)
system.mem_ctrls.bw_total::switch_cpus2.data    308557158                       # Total bandwidth to/from this memory (bytes/s)
system.mem_ctrls.bw_total::switch_cpus3.inst    308557158                       # Total bandwidth to/from this memory (bytes/s)
system.mem_ctrls.bw_total::switch_cpus3.data    308557158                       # Total bandwidth to/from this memory (bytes/s)
system.mem_ctrls.bw_total::total           3702685894                       # Total bandwidth to/from this memory (bytes/s)
system.mem_ctrls.readReqs                          11                       # Number of read requests accepted
system.mem_ctrls.writeReqs                          0                       # Number of write requests accepted
system.mem_ctrls.readBursts                        11                       # Number of DRAM read bursts, including those serviced by the write queue
system.mem_ctrls.writeBursts                        0                       # Number of DRAM write bursts, including those merged in the write queue
system.mem_ctrls.bytesReadDRAM                    704                       # Total number of bytes read from DRAM
system.mem_ctrls.bytesReadWrQ                       0                       # Total number of bytes read from write queue
system.mem_ctrls.bytesWritten                       0                       # Total number of bytes written to DRAM
system.mem_ctrls.bytesReadSys                     704                       # Total read bytes from the system interface side
system.mem_ctrls.bytesWrittenSys                    0                       # Total written bytes from the system interface side
system.mem_ctrls.servicedByWrQ                      0                       # Number of DRAM read bursts serviced by the write queue
system.mem_ctrls.mergedWrBursts                     0                       # Number of DRAM write bursts merged with an existing one
system.mem_ctrls.neitherReadNorWriteReqs            0                       # Number of requests that are neither read nor write
system.mem_ctrls.perBankRdBursts::0                 2                       # Per bank write bursts
system.mem_ctrls.perBankRdBursts::1                 0                       # Per bank write bursts
system.mem_ctrls.perBankRdBursts::2                 1                       # Per bank write bursts
system.mem_ctrls.perBankRdBursts::3                 0                       # Per bank write bursts
system.mem_ctrls.perBankRdBursts::4                 1                       # Per bank write bursts
system.mem_ctrls.perBankRdBursts::5                 1                       # Per bank write bursts
system.mem_ctrls.perBankRdBursts::6                 0                       # Per bank write bursts
system.mem_ctrls.perBankRdBursts::7                 2                       # Per bank write bursts
system.mem_ctrls.perBankRdBursts::8                 0                       # Per bank write bursts
system.mem_ctrls.perBankRdBursts::9                 1                       # Per bank write bursts
system.mem_ctrls.perBankRdBursts::10                0                       # Per bank write bursts
system.mem_ctrls.perBankRdBursts::11                0                       # Per bank write bursts
system.mem_ctrls.perBankRdBursts::12                1                       # Per bank write bursts
system.mem_ctrls.perBankRdBursts::13                2                       # Per bank write bursts
system.mem_ctrls.perBankRdBursts::14                0                       # Per bank write bursts
system.mem_ctrls.perBankRdBursts::15                0                       # Per bank write bursts
system.mem_ctrls.perBankWrBursts::0                 0                       # Per bank write bursts
system.mem_ctrls.perBankWrBursts::1                 0                       # Per bank write bursts
system.mem_ctrls.perBankWrBursts::2                 0                       # Per bank write bursts
system.mem_ctrls.perBankWrBursts::3                 0                       # Per bank write bursts
system.mem_ctrls.perBankWrBursts::4                 0                       # Per bank write bursts
system.mem_ctrls.perBankWrBursts::5                 0                       # Per bank write bursts
system.mem_ctrls.perBankWrBursts::6                 0                       # Per bank write bursts
system.mem_ctrls.perBankWrBursts::7                 0                       # Per bank write bursts
system.mem_ctrls.perBankWrBursts::8                 0                       # Per bank write bursts
system.mem_ctrls.perBankWrBursts::9                 0                       # Per bank write bursts
system.mem_ctrls.perBankWrBursts::10                0                       # Per bank write bursts
system.mem_ctrls.perBankWrBursts::11                0                       # Per bank write bursts
system.mem_ctrls.perBankWrBursts::12                0                       # Per bank write bursts
system.mem_ctrls.perBankWrBursts::13                0                       # Per bank write bursts
system.mem_ctrls.perBankWrBursts::14                0                       # Per bank write bursts
system.mem_ctrls.perBankWrBursts::15                0                       # Per bank write bursts
system.mem_ctrls.numRdRetry                         0                       # Number of times read queue was full causing retry
system.mem_ctrls.numWrRetry                         0                       # Number of times write queue was full causing retry
system.mem_ctrls.totGap                        116620                       # Total gap between requests
system.mem_ctrls.readPktSize::0                     0                       # Read request sizes (log2)
system.mem_ctrls.readPktSize::1                     0                       # Read request sizes (log2)
system.mem_ctrls.readPktSize::2                     0                       # Read request sizes (log2)
system.mem_ctrls.readPktSize::3                     0                       # Read request sizes (log2)
system.mem_ctrls.readPktSize::4                     0                       # Read request sizes (log2)
system.mem_ctrls.readPktSize::5                     0                       # Read request sizes (log2)
system.mem_ctrls.readPktSize::6                    11                       # Read request sizes (log2)
system.mem_ctrls.writePktSize::0                    0                       # Write request sizes (log2)
system.mem_ctrls.writePktSize::1                    0                       # Write request sizes (log2)
system.mem_ctrls.writePktSize::2                    0                       # Write request sizes (log2)
system.mem_ctrls.writePktSize::3                    0                       # Write request sizes (log2)
system.mem_ctrls.writePktSize::4                    0                       # Write request sizes (log2)
system.mem_ctrls.writePktSize::5                    0                       # Write request sizes (log2)
system.mem_ctrls.writePktSize::6                    0                       # Write request sizes (log2)
system.mem_ctrls.rdQLenPdf::0                       2                       # What read queue length does an incoming req see
system.mem_ctrls.rdQLenPdf::1                       2                       # What read queue length does an incoming req see
system.mem_ctrls.rdQLenPdf::2                       2                       # What read queue length does an incoming req see
system.mem_ctrls.rdQLenPdf::3                       1                       # What read queue length does an incoming req see
system.mem_ctrls.rdQLenPdf::4                       1                       # What read queue length does an incoming req see
system.mem_ctrls.rdQLenPdf::5                       1                       # What read queue length does an incoming req see
system.mem_ctrls.rdQLenPdf::6                       1                       # What read queue length does an incoming req see
system.mem_ctrls.rdQLenPdf::7                       1                       # What read queue length does an incoming req see
system.mem_ctrls.rdQLenPdf::8                       0                       # What read queue length does an incoming req see
system.mem_ctrls.rdQLenPdf::9                       0                       # What read queue length does an incoming req see
system.mem_ctrls.rdQLenPdf::10                      0                       # What read queue length does an incoming req see
system.mem_ctrls.rdQLenPdf::11                      0                       # What read queue length does an incoming req see
system.mem_ctrls.rdQLenPdf::12                      0                       # What read queue length does an incoming req see
system.mem_ctrls.rdQLenPdf::13                      0                       # What read queue length does an incoming req see
system.mem_ctrls.rdQLenPdf::14                      0                       # What read queue length does an incoming req see
system.mem_ctrls.rdQLenPdf::15                      0                       # What read queue length does an incoming req see
system.mem_ctrls.rdQLenPdf::16                      0                       # What read queue length does an incoming req see
system.mem_ctrls.rdQLenPdf::17                      0                       # What read queue length does an incoming req see
system.mem_ctrls.rdQLenPdf::18                      0                       # What read queue length does an incoming req see
system.mem_ctrls.rdQLenPdf::19                      0                       # What read queue length does an incoming req see
system.mem_ctrls.rdQLenPdf::20                      0                       # What read queue length does an incoming req see
system.mem_ctrls.rdQLenPdf::21                      0                       # What read queue length does an incoming req see
system.mem_ctrls.rdQLenPdf::22                      0                       # What read queue length does an incoming req see
system.mem_ctrls.rdQLenPdf::23                      0                       # What read queue length does an incoming req see
system.mem_ctrls.rdQLenPdf::24                      0                       # What read queue length does an incoming req see
system.mem_ctrls.rdQLenPdf::25                      0                       # What read queue length does an incoming req see
system.mem_ctrls.rdQLenPdf::26                      0                       # What read queue length does an incoming req see
system.mem_ctrls.rdQLenPdf::27                      0                       # What read queue length does an incoming req see
system.mem_ctrls.rdQLenPdf::28                      0                       # What read queue length does an incoming req see
system.mem_ctrls.rdQLenPdf::29                      0                       # What read queue length does an incoming req see
system.mem_ctrls.rdQLenPdf::30                      0                       # What read queue length does an incoming req see
system.mem_ctrls.rdQLenPdf::31                      0                       # What read queue length does an incoming req see
system.mem_ctrls.wrQLenPdf::0                       0                       # What write queue length does an incoming req see
system.mem_ctrls.wrQLenPdf::1                       0                       # What write queue length does an incoming req see
system.mem_ctrls.wrQLenPdf::2                       0                       # What write queue length does an incoming req see
system.mem_ctrls.wrQLenPdf::3                       0                       # What write queue length does an incoming req see
system.mem_ctrls.wrQLenPdf::4                       0                       # What write queue length does an incoming req see
system.mem_ctrls.wrQLenPdf::5                       0                       # What write queue length does an incoming req see
system.mem_ctrls.wrQLenPdf::6                       0                       # What write queue length does an incoming req see
system.mem_ctrls.wrQLenPdf::7                       0                       # What write queue length does an incoming req see
system.mem_ctrls.wrQLenPdf::8                       0                       # What write queue length does an incoming req see
system.mem_ctrls.wrQLenPdf::9                       0                       # What write queue length does an incoming req see
system.mem_ctrls.wrQLenPdf::10                      0                       # What write queue length does an incoming req see
system.mem_ctrls.wrQLenPdf::11                      0                       # What write queue length does an incoming req see
system.mem_ctrls.wrQLenPdf::12                      0                       # What write queue length does an incoming req see
system.mem_ctrls.wrQLenPdf::13                      0                       # What write queue length does an incoming req see
system.mem_ctrls.wrQLenPdf::14                      0                       # What write queue length does an incoming req see
system.mem_ctrls.wrQLenPdf::15                      0                       # What write queue length does an incoming req see
system.mem_ctrls.wrQLenPdf::16                      0                       # What write queue length does an incoming req see
system.mem_ctrls.wrQLenPdf::17                      0                       # What write queue length does an incoming req see
system.mem_ctrls.wrQLenPdf::18                      0                       # What write queue length does an incoming req see
system.mem_ctrls.wrQLenPdf::19                      0                       # What write queue length does an incoming req see
system.mem_ctrls.wrQLenPdf::20                      0                       # What write queue length does an incoming req see
system.mem_ctrls.wrQLenPdf::21                      0                       # What write queue length does an incoming req see
system.mem_ctrls.wrQLenPdf::22                      0                       # What write queue length does an incoming req see
system.mem_ctrls.wrQLenPdf::23                      0                       # What write queue length does an incoming req see
system.mem_ctrls.wrQLenPdf::24                      0                       # What write queue length does an incoming req see
system.mem_ctrls.wrQLenPdf::25                      0                       # What write queue length does an incoming req see
system.mem_ctrls.wrQLenPdf::26                      0                       # What write queue length does an incoming req see
system.mem_ctrls.wrQLenPdf::27                      0                       # What write queue length does an incoming req see
system.mem_ctrls.wrQLenPdf::28                      0                       # What write queue length does an incoming req see
system.mem_ctrls.wrQLenPdf::29                      0                       # What write queue length does an incoming req see
system.mem_ctrls.wrQLenPdf::30                      0                       # What write queue length does an incoming req see
system.mem_ctrls.wrQLenPdf::31                      0                       # What write queue length does an incoming req see
system.mem_ctrls.wrQLenPdf::32                      0                       # What write queue length does an incoming req see
system.mem_ctrls.wrQLenPdf::33                      0                       # What write queue length does an incoming req see
system.mem_ctrls.wrQLenPdf::34                      0                       # What write queue length does an incoming req see
system.mem_ctrls.wrQLenPdf::35                      0                       # What write queue length does an incoming req see
system.mem_ctrls.wrQLenPdf::36                      0                       # What write queue length does an incoming req see
system.mem_ctrls.wrQLenPdf::37                      0                       # What write queue length does an incoming req see
system.mem_ctrls.wrQLenPdf::38                      0                       # What write queue length does an incoming req see
system.mem_ctrls.wrQLenPdf::39                      0                       # What write queue length does an incoming req see
system.mem_ctrls.wrQLenPdf::40                      0                       # What write queue length does an incoming req see
system.mem_ctrls.wrQLenPdf::41                      0                       # What write queue length does an incoming req see
system.mem_ctrls.wrQLenPdf::42                      0                       # What write queue length does an incoming req see
system.mem_ctrls.wrQLenPdf::43                      0                       # What write queue length does an incoming req see
system.mem_ctrls.wrQLenPdf::44                      0                       # What write queue length does an incoming req see
system.mem_ctrls.wrQLenPdf::45                      0                       # What write queue length does an incoming req see
system.mem_ctrls.wrQLenPdf::46                      0                       # What write queue length does an incoming req see
system.mem_ctrls.wrQLenPdf::47                      0                       # What write queue length does an incoming req see
system.mem_ctrls.wrQLenPdf::48                      0                       # What write queue length does an incoming req see
system.mem_ctrls.wrQLenPdf::49                      0                       # What write queue length does an incoming req see
system.mem_ctrls.wrQLenPdf::50                      0                       # What write queue length does an incoming req see
system.mem_ctrls.wrQLenPdf::51                      0                       # What write queue length does an incoming req see
system.mem_ctrls.wrQLenPdf::52                      0                       # What write queue length does an incoming req see
system.mem_ctrls.wrQLenPdf::53                      0                       # What write queue length does an incoming req see
system.mem_ctrls.wrQLenPdf::54                      0                       # What write queue length does an incoming req see
system.mem_ctrls.wrQLenPdf::55                      0                       # What write queue length does an incoming req see
system.mem_ctrls.wrQLenPdf::56                      0                       # What write queue length does an incoming req see
system.mem_ctrls.wrQLenPdf::57                      0                       # What write queue length does an incoming req see
system.mem_ctrls.wrQLenPdf::58                      0                       # What write queue length does an incoming req see
system.mem_ctrls.wrQLenPdf::59                      0                       # What write queue length does an incoming req see
system.mem_ctrls.wrQLenPdf::60                      0                       # What write queue length does an incoming req see
system.mem_ctrls.wrQLenPdf::61                      0                       # What write queue length does an incoming req see
system.mem_ctrls.wrQLenPdf::62                      0                       # What write queue length does an incoming req see
system.mem_ctrls.wrQLenPdf::63                      0                       # What write queue length does an incoming req see
system.mem_ctrls.totQLat                       266112                       # Total ticks spent queuing
system.mem_ctrls.totMemAccLat                  472362                       # Total ticks spent from burst creation until serviced by the DRAM
system.mem_ctrls.totBusLat                      55000                       # Total ticks spent in databus transfers
system.mem_ctrls.avgQLat                     24192.00                       # Average queueing delay per DRAM burst
system.mem_ctrls.avgBusLat                    5000.00                       # Average bus latency per DRAM burst
system.mem_ctrls.avgMemAccLat                42942.00                       # Average memory access latency per DRAM burst
system.mem_ctrls.avgRdBW                      3394.13                       # Average DRAM read bandwidth in MiByte/s
system.mem_ctrls.avgWrBW                         0.00                       # Average achieved write bandwidth in MiByte/s
system.mem_ctrls.avgRdBWSys                   3394.13                       # Average system read bandwidth in MiByte/s
system.mem_ctrls.avgWrBWSys                      0.00                       # Average system write bandwidth in MiByte/s
system.mem_ctrls.peakBW                      12800.00                       # Theoretical peak bandwidth in MiByte/s
system.mem_ctrls.busUtil                        26.52                       # Data bus utilization in percentage
system.mem_ctrls.busUtilRead                    26.52                       # Data bus utilization in percentage for reads
system.mem_ctrls.busUtilWrite                    0.00                       # Data bus utilization in percentage for writes
system.mem_ctrls.avgRdQLen                       4.09                       # Average read queue length when enqueuing
system.mem_ctrls.avgWrQLen                       0.00                       # Average write queue length when enqueuing
system.mem_ctrls.readRowHits                        3                       # Number of row buffer hits during reads
system.mem_ctrls.writeRowHits                       0                       # Number of row buffer hits during writes
system.mem_ctrls.readRowHitRate                 27.27                       # Row buffer hit rate for reads
system.mem_ctrls.writeRowHitRate                  nan                       # Row buffer hit rate for writes
system.mem_ctrls.avgGap                      10601.82                       # Average gap between requests
system.mem_ctrls.pageHitRate                    27.27                       # Row buffer hit rate, read and write combined
system.mem_ctrls_0.actEnergy                    35700                       # Energy for activate commands per rank (pJ)
system.mem_ctrls_0.preEnergy                        0                       # Energy for precharge commands per rank (pJ)
system.mem_ctrls_0.readEnergy                   49980                       # Energy for read commands per rank (pJ)
system.mem_ctrls_0.writeEnergy                      0                       # Energy for write commands per rank (pJ)
system.mem_ctrls_0.refreshEnergy                    0                       # Energy for refresh commands per rank (pJ)
system.mem_ctrls_0.actBackEnergy                43320                       # Energy for active background per rank (pJ)
system.mem_ctrls_0.preBackEnergy                31200                       # Energy for precharge background per rank (pJ)
system.mem_ctrls_0.actPowerDownEnergy           13680                       # Energy for active power-down per rank (pJ)
system.mem_ctrls_0.prePowerDownEnergy               0                       # Energy for precharge power-down per rank (pJ)
system.mem_ctrls_0.selfRefreshEnergy                0                       # Energy for self refresh per rank (pJ)
system.mem_ctrls_0.totalEnergy                 173880                       # Total energy per rank (pJ)
system.mem_ctrls_0.averagePower            843.054545                       # Core power per rank (mW)
system.mem_ctrls_0.totalIdleTime                30625                       # Total Idle time Per DRAM Rank
system.mem_ctrls_0.memoryStateTime::IDLE        80801                       # Time in different power states
system.mem_ctrls_0.memoryStateTime::REF             0                       # Time in different power states
system.mem_ctrls_0.memoryStateTime::SREF            0                       # Time in different power states
system.mem_ctrls_0.memoryStateTime::PRE_PDN            0                       # Time in different power states
system.mem_ctrls_0.memoryStateTime::ACT         95158                       # Time in different power states
system.mem_ctrls_0.memoryStateTime::ACT_PDN        30625                       # Time in different power states
system.mem_ctrls_1.actEnergy                    21420                       # Energy for activate commands per rank (pJ)
system.mem_ctrls_1.preEnergy                        0                       # Energy for precharge commands per rank (pJ)
system.mem_ctrls_1.readEnergy                   28560                       # Energy for read commands per rank (pJ)
system.mem_ctrls_1.writeEnergy                      0                       # Energy for write commands per rank (pJ)
system.mem_ctrls_1.refreshEnergy                    0                       # Energy for refresh commands per rank (pJ)
system.mem_ctrls_1.actBackEnergy                28500                       # Energy for active background per rank (pJ)
system.mem_ctrls_1.preBackEnergy                32160                       # Energy for precharge background per rank (pJ)
system.mem_ctrls_1.actPowerDownEnergy           27360                       # Energy for active power-down per rank (pJ)
system.mem_ctrls_1.prePowerDownEnergy               0                       # Energy for precharge power-down per rank (pJ)
system.mem_ctrls_1.selfRefreshEnergy                0                       # Energy for self refresh per rank (pJ)
system.mem_ctrls_1.totalEnergy                 138000                       # Total energy per rank (pJ)
system.mem_ctrls_1.averagePower            669.090909                       # Core power per rank (mW)
system.mem_ctrls_1.totalIdleTime                60620                       # Total Idle time Per DRAM Rank
system.mem_ctrls_1.memoryStateTime::IDLE        83167                       # Time in different power states
system.mem_ctrls_1.memoryStateTime::REF             0                       # Time in different power states
system.mem_ctrls_1.memoryStateTime::SREF            0                       # Time in different power states
system.mem_ctrls_1.memoryStateTime::PRE_PDN            0                       # Time in different power states
system.mem_ctrls_1.memoryStateTime::ACT         62797                       # Time in different power states
system.mem_ctrls_1.memoryStateTime::ACT_PDN        60620                       # Time in different power states
system.pwrStateResidencyTicks::UNDEFINED       207417                       # Cumulative time (in ticks) in various power states
system.cpu_voltage_domain.voltage                   1                       # Voltage in Volts
system.cpu_clk_domain.clock                       833                       # Clock period in ticks
system.cpu0.dtb.walker.pwrStateResidencyTicks::UNDEFINED       207417                       # Cumulative time (in ticks) in various power states
system.cpu0.apic_clk_domain.clock               13328                       # Clock period in ticks
system.cpu0.interrupts.pwrStateResidencyTicks::UNDEFINED       207417                       # Cumulative time (in ticks) in various power states
system.cpu0.itb.walker.pwrStateResidencyTicks::UNDEFINED       207417                       # Cumulative time (in ticks) in various power states
system.cpu0.workload.num_syscalls                   0                       # Number of system calls
system.cpu0.pwrStateResidencyTicks::ON         207417                       # Cumulative time (in ticks) in various power states
system.cpu0.numCycles                               1                       # number of cpu cycles simulated
system.cpu0.numWorkItemsStarted                     0                       # number of work items this cpu started
system.cpu0.numWorkItemsCompleted                   0                       # number of work items this cpu completed
system.cpu0.committedInsts                          1                       # Number of instructions committed
system.cpu0.committedOps                            1                       # Number of ops (including micro ops) committed
system.cpu0.num_int_alu_accesses                    1                       # Number of integer alu accesses
system.cpu0.num_fp_alu_accesses                     0                       # Number of float alu accesses
system.cpu0.num_func_calls                          0                       # number of times a function call or return occured
system.cpu0.num_conditional_control_insts            0                       # number of instructions that are conditional controls
system.cpu0.num_int_insts                           1                       # number of integer instructions
system.cpu0.num_fp_insts                            0                       # number of float instructions
system.cpu0.num_int_register_reads                  3                       # number of times the integer registers were read
system.cpu0.num_int_register_writes                 1                       # number of times the integer registers were written
system.cpu0.num_fp_register_reads                   0                       # number of times the floating registers were read
system.cpu0.num_fp_register_writes                  0                       # number of times the floating registers were written
system.cpu0.num_mem_refs                            0                       # number of memory refs
system.cpu0.num_load_insts                          0                       # Number of load instructions
system.cpu0.num_store_insts                         0                       # Number of store instructions
system.cpu0.num_idle_cycles                         0                       # Number of idle cycles
system.cpu0.num_busy_cycles                         1                       # Number of busy cycles
system.cpu0.not_idle_fraction                       1                       # Percentage of non-idle cycles
system.cpu0.idle_fraction                           0                       # Percentage of idle cycles
system.cpu0.op_class::No_OpClass                    0      0.00%      0.00% # Class of executed instruction
system.cpu0.op_class::IntAlu                        1    100.00%    100.00% # Class of executed instruction
system.cpu0.op_class::IntMult                       0      0.00%    100.00% # Class of executed instruction
system.cpu0.op_class::IntDiv                        0      0.00%    100.00% # Class of executed instruction
system.cpu0.op_class::FloatAdd                      0      0.00%    100.00% # Class of executed instruction
system.cpu0.op_class::FloatCmp                      0      0.00%    100.00% # Class of executed instruction
system.cpu0.op_class::FloatCvt                      0      0.00%    100.00% # Class of executed instruction
system.cpu0.op_class::FloatMult                     0      0.00%    100.00% # Class of executed instruction
system.cpu0.op_class::FloatMultAcc                  0      0.00%    100.00% # Class of executed instruction
system.cpu0.op_class::FloatDiv                      0      0.00%    100.00% # Class of executed instruction
system.cpu0.op_class::FloatMisc                     0      0.00%    100.00% # Class of executed instruction
system.cpu0.op_class::FloatSqrt                     0      0.00%    100.00% # Class of executed instruction
system.cpu0.op_class::SimdAdd                       0      0.00%    100.00% # Class of executed instruction
system.cpu0.op_class::SimdAddAcc                    0      0.00%    100.00% # Class of executed instruction
system.cpu0.op_class::SimdAlu                       0      0.00%    100.00% # Class of executed instruction
system.cpu0.op_class::SimdCmp                       0      0.00%    100.00% # Class of executed instruction
system.cpu0.op_class::SimdCvt                       0      0.00%    100.00% # Class of executed instruction
system.cpu0.op_class::SimdMisc                      0      0.00%    100.00% # Class of executed instruction
system.cpu0.op_class::SimdMult                      0      0.00%    100.00% # Class of executed instruction
system.cpu0.op_class::SimdMultAcc                   0      0.00%    100.00% # Class of executed instruction
system.cpu0.op_class::SimdShift                     0      0.00%    100.00% # Class of executed instruction
system.cpu0.op_class::SimdShiftAcc                  0      0.00%    100.00% # Class of executed instruction
system.cpu0.op_class::SimdSqrt                      0      0.00%    100.00% # Class of executed instruction
system.cpu0.op_class::SimdFloatAdd                  0      0.00%    100.00% # Class of executed instruction
system.cpu0.op_class::SimdFloatAlu                  0      0.00%    100.00% # Class of executed instruction
system.cpu0.op_class::SimdFloatCmp                  0      0.00%    100.00% # Class of executed instruction
system.cpu0.op_class::SimdFloatCvt                  0      0.00%    100.00% # Class of executed instruction
system.cpu0.op_class::SimdFloatDiv                  0      0.00%    100.00% # Class of executed instruction
system.cpu0.op_class::SimdFloatMisc                 0      0.00%    100.00% # Class of executed instruction
system.cpu0.op_class::SimdFloatMult                 0      0.00%    100.00% # Class of executed instruction
system.cpu0.op_class::SimdFloatMultAcc              0      0.00%    100.00% # Class of executed instruction
system.cpu0.op_class::SimdFloatSqrt                 0      0.00%    100.00% # Class of executed instruction
system.cpu0.op_class::MemRead                       0      0.00%    100.00% # Class of executed instruction
system.cpu0.op_class::MemWrite                      0      0.00%    100.00% # Class of executed instruction
system.cpu0.op_class::FloatMemRead                  0      0.00%    100.00% # Class of executed instruction
system.cpu0.op_class::FloatMemWrite                 0      0.00%    100.00% # Class of executed instruction
system.cpu0.op_class::IprAccess                     0      0.00%    100.00% # Class of executed instruction
system.cpu0.op_class::InstPrefetch                  0      0.00%    100.00% # Class of executed instruction
system.cpu0.op_class::total                         1                       # Class of executed instruction
system.cpu0.dcache.tags.pwrStateResidencyTicks::UNDEFINED       207417                       # Cumulative time (in ticks) in various power states
system.cpu0.dcache.tags.replacements                0                       # number of replacements
system.cpu0.dcache.tags.tagsinuse            0.016069                       # Cycle average of tags in use
system.cpu0.dcache.tags.total_refs                  0                       # Total number of references to valid blocks.
system.cpu0.dcache.tags.sampled_refs                0                       # Sample count of references to valid blocks.
system.cpu0.dcache.tags.avg_refs                  nan                       # Average number of references to valid blocks.
system.cpu0.dcache.tags.warmup_cycle                0                       # Cycle when the warmup percentage was hit.
system.cpu0.dcache.tags.occ_blocks::switch_cpus0.data     0.016069                       # Average occupied blocks per requestor
system.cpu0.dcache.tags.occ_percent::switch_cpus0.data     0.000126                       # Average percentage of cache occupancy
system.cpu0.dcache.tags.occ_percent::total     0.000126                       # Average percentage of cache occupancy
system.cpu0.dcache.tags.occ_task_id_blocks::1024            1                       # Occupied blocks per task id
system.cpu0.dcache.tags.age_task_id_blocks_1024::0            1                       # Occupied blocks per task id
system.cpu0.dcache.tags.occ_task_id_percent::1024     0.007812                       # Percentage of cache occupancy per task id
system.cpu0.dcache.tags.tag_accesses                9                       # Number of tag accesses
system.cpu0.dcache.tags.data_accesses               9                       # Number of data accesses
system.cpu0.dcache.pwrStateResidencyTicks::UNDEFINED       207417                       # Cumulative time (in ticks) in various power states
system.cpu0.dcache.ReadReq_misses::switch_cpus0.data            1                       # number of ReadReq misses
system.cpu0.dcache.ReadReq_misses::total            1                       # number of ReadReq misses
system.cpu0.dcache.demand_misses::switch_cpus0.data            1                       # number of demand (read+write) misses
system.cpu0.dcache.demand_misses::total             1                       # number of demand (read+write) misses
system.cpu0.dcache.overall_misses::switch_cpus0.data            1                       # number of overall misses
system.cpu0.dcache.overall_misses::total            1                       # number of overall misses
system.cpu0.dcache.ReadReq_miss_latency::switch_cpus0.data       140777                       # number of ReadReq miss cycles
system.cpu0.dcache.ReadReq_miss_latency::total       140777                       # number of ReadReq miss cycles
system.cpu0.dcache.demand_miss_latency::switch_cpus0.data       140777                       # number of demand (read+write) miss cycles
system.cpu0.dcache.demand_miss_latency::total       140777                       # number of demand (read+write) miss cycles
system.cpu0.dcache.overall_miss_latency::switch_cpus0.data       140777                       # number of overall miss cycles
system.cpu0.dcache.overall_miss_latency::total       140777                       # number of overall miss cycles
system.cpu0.dcache.ReadReq_accesses::switch_cpus0.data            1                       # number of ReadReq accesses(hits+misses)
system.cpu0.dcache.ReadReq_accesses::total            1                       # number of ReadReq accesses(hits+misses)
system.cpu0.dcache.demand_accesses::switch_cpus0.data            1                       # number of demand (read+write) accesses
system.cpu0.dcache.demand_accesses::total            1                       # number of demand (read+write) accesses
system.cpu0.dcache.overall_accesses::switch_cpus0.data            1                       # number of overall (read+write) accesses
system.cpu0.dcache.overall_accesses::total            1                       # number of overall (read+write) accesses
system.cpu0.dcache.ReadReq_miss_rate::switch_cpus0.data            1                       # miss rate for ReadReq accesses
system.cpu0.dcache.ReadReq_miss_rate::total            1                       # miss rate for ReadReq accesses
system.cpu0.dcache.demand_miss_rate::switch_cpus0.data            1                       # miss rate for demand accesses
system.cpu0.dcache.demand_miss_rate::total            1                       # miss rate for demand accesses
system.cpu0.dcache.overall_miss_rate::switch_cpus0.data            1                       # miss rate for overall accesses
system.cpu0.dcache.overall_miss_rate::total            1                       # miss rate for overall accesses
system.cpu0.dcache.ReadReq_avg_miss_latency::switch_cpus0.data       140777                       # average ReadReq miss latency
system.cpu0.dcache.ReadReq_avg_miss_latency::total       140777                       # average ReadReq miss latency
system.cpu0.dcache.demand_avg_miss_latency::switch_cpus0.data       140777                       # average overall miss latency
system.cpu0.dcache.demand_avg_miss_latency::total       140777                       # average overall miss latency
system.cpu0.dcache.overall_avg_miss_latency::switch_cpus0.data       140777                       # average overall miss latency
system.cpu0.dcache.overall_avg_miss_latency::total       140777                       # average overall miss latency
system.cpu0.dcache.blocked_cycles::no_mshrs            0                       # number of cycles access was blocked
system.cpu0.dcache.blocked_cycles::no_targets            0                       # number of cycles access was blocked
system.cpu0.dcache.blocked::no_mshrs                0                       # number of cycles access was blocked
system.cpu0.dcache.blocked::no_targets              0                       # number of cycles access was blocked
system.cpu0.dcache.avg_blocked_cycles::no_mshrs          nan                       # average number of cycles each access was blocked
system.cpu0.dcache.avg_blocked_cycles::no_targets          nan                       # average number of cycles each access was blocked
system.cpu0.dcache.ReadReq_mshr_misses::switch_cpus0.data            1                       # number of ReadReq MSHR misses
system.cpu0.dcache.ReadReq_mshr_misses::total            1                       # number of ReadReq MSHR misses
system.cpu0.dcache.demand_mshr_misses::switch_cpus0.data            1                       # number of demand (read+write) MSHR misses
system.cpu0.dcache.demand_mshr_misses::total            1                       # number of demand (read+write) MSHR misses
system.cpu0.dcache.overall_mshr_misses::switch_cpus0.data            1                       # number of overall MSHR misses
system.cpu0.dcache.overall_mshr_misses::total            1                       # number of overall MSHR misses
system.cpu0.dcache.ReadReq_mshr_miss_latency::switch_cpus0.data       139111                       # number of ReadReq MSHR miss cycles
system.cpu0.dcache.ReadReq_mshr_miss_latency::total       139111                       # number of ReadReq MSHR miss cycles
system.cpu0.dcache.demand_mshr_miss_latency::switch_cpus0.data       139111                       # number of demand (read+write) MSHR miss cycles
system.cpu0.dcache.demand_mshr_miss_latency::total       139111                       # number of demand (read+write) MSHR miss cycles
system.cpu0.dcache.overall_mshr_miss_latency::switch_cpus0.data       139111                       # number of overall MSHR miss cycles
system.cpu0.dcache.overall_mshr_miss_latency::total       139111                       # number of overall MSHR miss cycles
system.cpu0.dcache.ReadReq_mshr_miss_rate::switch_cpus0.data            1                       # mshr miss rate for ReadReq accesses
system.cpu0.dcache.ReadReq_mshr_miss_rate::total            1                       # mshr miss rate for ReadReq accesses
system.cpu0.dcache.demand_mshr_miss_rate::switch_cpus0.data            1                       # mshr miss rate for demand accesses
system.cpu0.dcache.demand_mshr_miss_rate::total            1                       # mshr miss rate for demand accesses
system.cpu0.dcache.overall_mshr_miss_rate::switch_cpus0.data            1                       # mshr miss rate for overall accesses
system.cpu0.dcache.overall_mshr_miss_rate::total            1                       # mshr miss rate for overall accesses
system.cpu0.dcache.ReadReq_avg_mshr_miss_latency::switch_cpus0.data       139111                       # average ReadReq mshr miss latency
system.cpu0.dcache.ReadReq_avg_mshr_miss_latency::total       139111                       # average ReadReq mshr miss latency
system.cpu0.dcache.demand_avg_mshr_miss_latency::switch_cpus0.data       139111                       # average overall mshr miss latency
system.cpu0.dcache.demand_avg_mshr_miss_latency::total       139111                       # average overall mshr miss latency
system.cpu0.dcache.overall_avg_mshr_miss_latency::switch_cpus0.data       139111                       # average overall mshr miss latency
system.cpu0.dcache.overall_avg_mshr_miss_latency::total       139111                       # average overall mshr miss latency
system.cpu0.dtb_walker_cache.tags.pwrStateResidencyTicks::UNDEFINED       207417                       # Cumulative time (in ticks) in various power states
system.cpu0.dtb_walker_cache.tags.replacements            0                       # number of replacements
system.cpu0.dtb_walker_cache.tags.tagsinuse            0                       # Cycle average of tags in use
system.cpu0.dtb_walker_cache.tags.total_refs            0                       # Total number of references to valid blocks.
system.cpu0.dtb_walker_cache.tags.sampled_refs            0                       # Sample count of references to valid blocks.
system.cpu0.dtb_walker_cache.tags.avg_refs          nan                       # Average number of references to valid blocks.
system.cpu0.dtb_walker_cache.tags.warmup_cycle            0                       # Cycle when the warmup percentage was hit.
system.cpu0.dtb_walker_cache.tags.tag_accesses            0                       # Number of tag accesses
system.cpu0.dtb_walker_cache.tags.data_accesses            0                       # Number of data accesses
system.cpu0.dtb_walker_cache.pwrStateResidencyTicks::UNDEFINED       207417                       # Cumulative time (in ticks) in various power states
system.cpu0.dtb_walker_cache.blocked_cycles::no_mshrs            0                       # number of cycles access was blocked
system.cpu0.dtb_walker_cache.blocked_cycles::no_targets            0                       # number of cycles access was blocked
system.cpu0.dtb_walker_cache.blocked::no_mshrs            0                       # number of cycles access was blocked
system.cpu0.dtb_walker_cache.blocked::no_targets            0                       # number of cycles access was blocked
system.cpu0.dtb_walker_cache.avg_blocked_cycles::no_mshrs          nan                       # average number of cycles each access was blocked
system.cpu0.dtb_walker_cache.avg_blocked_cycles::no_targets          nan                       # average number of cycles each access was blocked
system.cpu0.icache.tags.pwrStateResidencyTicks::UNDEFINED       207417                       # Cumulative time (in ticks) in various power states
system.cpu0.icache.tags.replacements                0                       # number of replacements
system.cpu0.icache.tags.tagsinuse            1.208839                       # Cycle average of tags in use
system.cpu0.icache.tags.total_refs                  0                       # Total number of references to valid blocks.
system.cpu0.icache.tags.sampled_refs                0                       # Sample count of references to valid blocks.
system.cpu0.icache.tags.avg_refs                  nan                       # Average number of references to valid blocks.
system.cpu0.icache.tags.warmup_cycle                0                       # Cycle when the warmup percentage was hit.
system.cpu0.icache.tags.occ_blocks::cpu0.inst     0.995984                       # Average occupied blocks per requestor
system.cpu0.icache.tags.occ_blocks::switch_cpus0.inst     0.212855                       # Average occupied blocks per requestor
system.cpu0.icache.tags.occ_percent::cpu0.inst     0.007781                       # Average percentage of cache occupancy
system.cpu0.icache.tags.occ_percent::switch_cpus0.inst     0.001663                       # Average percentage of cache occupancy
system.cpu0.icache.tags.occ_percent::total     0.009444                       # Average percentage of cache occupancy
system.cpu0.icache.tags.occ_task_id_blocks::1024            2                       # Occupied blocks per task id
system.cpu0.icache.tags.age_task_id_blocks_1024::0            2                       # Occupied blocks per task id
system.cpu0.icache.tags.occ_task_id_percent::1024     0.015625                       # Percentage of cache occupancy per task id
system.cpu0.icache.tags.tag_accesses               34                       # Number of tag accesses
system.cpu0.icache.tags.data_accesses              34                       # Number of data accesses
system.cpu0.icache.pwrStateResidencyTicks::UNDEFINED       207417                       # Cumulative time (in ticks) in various power states
system.cpu0.icache.ReadReq_hits::switch_cpus0.inst            1                       # number of ReadReq hits
system.cpu0.icache.ReadReq_hits::total              1                       # number of ReadReq hits
system.cpu0.icache.demand_hits::switch_cpus0.inst            1                       # number of demand (read+write) hits
system.cpu0.icache.demand_hits::total               1                       # number of demand (read+write) hits
system.cpu0.icache.overall_hits::switch_cpus0.inst            1                       # number of overall hits
system.cpu0.icache.overall_hits::total              1                       # number of overall hits
system.cpu0.icache.ReadReq_misses::cpu0.inst            1                       # number of ReadReq misses
system.cpu0.icache.ReadReq_misses::switch_cpus0.inst            2                       # number of ReadReq misses
system.cpu0.icache.ReadReq_misses::total            3                       # number of ReadReq misses
system.cpu0.icache.demand_misses::cpu0.inst            1                       # number of demand (read+write) misses
system.cpu0.icache.demand_misses::switch_cpus0.inst            2                       # number of demand (read+write) misses
system.cpu0.icache.demand_misses::total             3                       # number of demand (read+write) misses
system.cpu0.icache.overall_misses::cpu0.inst            1                       # number of overall misses
system.cpu0.icache.overall_misses::switch_cpus0.inst            2                       # number of overall misses
system.cpu0.icache.overall_misses::total            3                       # number of overall misses
system.cpu0.icache.ReadReq_miss_latency::switch_cpus0.inst       102459                       # number of ReadReq miss cycles
system.cpu0.icache.ReadReq_miss_latency::total       102459                       # number of ReadReq miss cycles
system.cpu0.icache.demand_miss_latency::switch_cpus0.inst       102459                       # number of demand (read+write) miss cycles
system.cpu0.icache.demand_miss_latency::total       102459                       # number of demand (read+write) miss cycles
system.cpu0.icache.overall_miss_latency::switch_cpus0.inst       102459                       # number of overall miss cycles
system.cpu0.icache.overall_miss_latency::total       102459                       # number of overall miss cycles
system.cpu0.icache.ReadReq_accesses::cpu0.inst            1                       # number of ReadReq accesses(hits+misses)
system.cpu0.icache.ReadReq_accesses::switch_cpus0.inst            3                       # number of ReadReq accesses(hits+misses)
system.cpu0.icache.ReadReq_accesses::total            4                       # number of ReadReq accesses(hits+misses)
system.cpu0.icache.demand_accesses::cpu0.inst            1                       # number of demand (read+write) accesses
system.cpu0.icache.demand_accesses::switch_cpus0.inst            3                       # number of demand (read+write) accesses
system.cpu0.icache.demand_accesses::total            4                       # number of demand (read+write) accesses
system.cpu0.icache.overall_accesses::cpu0.inst            1                       # number of overall (read+write) accesses
system.cpu0.icache.overall_accesses::switch_cpus0.inst            3                       # number of overall (read+write) accesses
system.cpu0.icache.overall_accesses::total            4                       # number of overall (read+write) accesses
system.cpu0.icache.ReadReq_miss_rate::cpu0.inst            1                       # miss rate for ReadReq accesses
system.cpu0.icache.ReadReq_miss_rate::switch_cpus0.inst     0.666667                       # miss rate for ReadReq accesses
system.cpu0.icache.ReadReq_miss_rate::total     0.750000                       # miss rate for ReadReq accesses
system.cpu0.icache.demand_miss_rate::cpu0.inst            1                       # miss rate for demand accesses
system.cpu0.icache.demand_miss_rate::switch_cpus0.inst     0.666667                       # miss rate for demand accesses
system.cpu0.icache.demand_miss_rate::total     0.750000                       # miss rate for demand accesses
system.cpu0.icache.overall_miss_rate::cpu0.inst            1                       # miss rate for overall accesses
system.cpu0.icache.overall_miss_rate::switch_cpus0.inst     0.666667                       # miss rate for overall accesses
system.cpu0.icache.overall_miss_rate::total     0.750000                       # miss rate for overall accesses
system.cpu0.icache.ReadReq_avg_miss_latency::switch_cpus0.inst 51229.500000                       # average ReadReq miss latency
system.cpu0.icache.ReadReq_avg_miss_latency::total        34153                       # average ReadReq miss latency
system.cpu0.icache.demand_avg_miss_latency::switch_cpus0.inst 51229.500000                       # average overall miss latency
system.cpu0.icache.demand_avg_miss_latency::total        34153                       # average overall miss latency
system.cpu0.icache.overall_avg_miss_latency::switch_cpus0.inst 51229.500000                       # average overall miss latency
system.cpu0.icache.overall_avg_miss_latency::total        34153                       # average overall miss latency
system.cpu0.icache.blocked_cycles::no_mshrs            0                       # number of cycles access was blocked
system.cpu0.icache.blocked_cycles::no_targets            0                       # number of cycles access was blocked
system.cpu0.icache.blocked::no_mshrs                0                       # number of cycles access was blocked
system.cpu0.icache.blocked::no_targets              0                       # number of cycles access was blocked
system.cpu0.icache.avg_blocked_cycles::no_mshrs          nan                       # average number of cycles each access was blocked
system.cpu0.icache.avg_blocked_cycles::no_targets          nan                       # average number of cycles each access was blocked
system.cpu0.icache.ReadReq_mshr_misses::switch_cpus0.inst            2                       # number of ReadReq MSHR misses
system.cpu0.icache.ReadReq_mshr_misses::total            2                       # number of ReadReq MSHR misses
system.cpu0.icache.demand_mshr_misses::switch_cpus0.inst            2                       # number of demand (read+write) MSHR misses
system.cpu0.icache.demand_mshr_misses::total            2                       # number of demand (read+write) MSHR misses
system.cpu0.icache.overall_mshr_misses::switch_cpus0.inst            2                       # number of overall MSHR misses
system.cpu0.icache.overall_mshr_misses::total            2                       # number of overall MSHR misses
system.cpu0.icache.ReadReq_mshr_miss_latency::switch_cpus0.inst       100793                       # number of ReadReq MSHR miss cycles
system.cpu0.icache.ReadReq_mshr_miss_latency::total       100793                       # number of ReadReq MSHR miss cycles
system.cpu0.icache.demand_mshr_miss_latency::switch_cpus0.inst       100793                       # number of demand (read+write) MSHR miss cycles
system.cpu0.icache.demand_mshr_miss_latency::total       100793                       # number of demand (read+write) MSHR miss cycles
system.cpu0.icache.overall_mshr_miss_latency::switch_cpus0.inst       100793                       # number of overall MSHR miss cycles
system.cpu0.icache.overall_mshr_miss_latency::total       100793                       # number of overall MSHR miss cycles
system.cpu0.icache.ReadReq_mshr_miss_rate::switch_cpus0.inst     0.666667                       # mshr miss rate for ReadReq accesses
system.cpu0.icache.ReadReq_mshr_miss_rate::total     0.500000                       # mshr miss rate for ReadReq accesses
system.cpu0.icache.demand_mshr_miss_rate::switch_cpus0.inst     0.666667                       # mshr miss rate for demand accesses
system.cpu0.icache.demand_mshr_miss_rate::total     0.500000                       # mshr miss rate for demand accesses
system.cpu0.icache.overall_mshr_miss_rate::switch_cpus0.inst     0.666667                       # mshr miss rate for overall accesses
system.cpu0.icache.overall_mshr_miss_rate::total     0.500000                       # mshr miss rate for overall accesses
system.cpu0.icache.ReadReq_avg_mshr_miss_latency::switch_cpus0.inst 50396.500000                       # average ReadReq mshr miss latency
system.cpu0.icache.ReadReq_avg_mshr_miss_latency::total 50396.500000                       # average ReadReq mshr miss latency
system.cpu0.icache.demand_avg_mshr_miss_latency::switch_cpus0.inst 50396.500000                       # average overall mshr miss latency
system.cpu0.icache.demand_avg_mshr_miss_latency::total 50396.500000                       # average overall mshr miss latency
system.cpu0.icache.overall_avg_mshr_miss_latency::switch_cpus0.inst 50396.500000                       # average overall mshr miss latency
system.cpu0.icache.overall_avg_mshr_miss_latency::total 50396.500000                       # average overall mshr miss latency
system.cpu0.itb_walker_cache.tags.pwrStateResidencyTicks::UNDEFINED       207417                       # Cumulative time (in ticks) in various power states
system.cpu0.itb_walker_cache.tags.replacements            0                       # number of replacements
system.cpu0.itb_walker_cache.tags.tagsinuse            0                       # Cycle average of tags in use
system.cpu0.itb_walker_cache.tags.total_refs            0                       # Total number of references to valid blocks.
system.cpu0.itb_walker_cache.tags.sampled_refs            0                       # Sample count of references to valid blocks.
system.cpu0.itb_walker_cache.tags.avg_refs          nan                       # Average number of references to valid blocks.
system.cpu0.itb_walker_cache.tags.warmup_cycle            0                       # Cycle when the warmup percentage was hit.
system.cpu0.itb_walker_cache.tags.tag_accesses            0                       # Number of tag accesses
system.cpu0.itb_walker_cache.tags.data_accesses            0                       # Number of data accesses
system.cpu0.itb_walker_cache.pwrStateResidencyTicks::UNDEFINED       207417                       # Cumulative time (in ticks) in various power states
system.cpu0.itb_walker_cache.blocked_cycles::no_mshrs            0                       # number of cycles access was blocked
system.cpu0.itb_walker_cache.blocked_cycles::no_targets            0                       # number of cycles access was blocked
system.cpu0.itb_walker_cache.blocked::no_mshrs            0                       # number of cycles access was blocked
system.cpu0.itb_walker_cache.blocked::no_targets            0                       # number of cycles access was blocked
system.cpu0.itb_walker_cache.avg_blocked_cycles::no_mshrs          nan                       # average number of cycles each access was blocked
system.cpu0.itb_walker_cache.avg_blocked_cycles::no_targets          nan                       # average number of cycles each access was blocked
system.cpu1.dtb.walker.pwrStateResidencyTicks::UNDEFINED       207417                       # Cumulative time (in ticks) in various power states
system.cpu1.apic_clk_domain.clock               13328                       # Clock period in ticks
system.cpu1.interrupts.pwrStateResidencyTicks::UNDEFINED       207417                       # Cumulative time (in ticks) in various power states
system.cpu1.itb.walker.pwrStateResidencyTicks::UNDEFINED       207417                       # Cumulative time (in ticks) in various power states
system.cpu1.workload.num_syscalls                   0                       # Number of system calls
system.cpu1.pwrStateResidencyTicks::ON         207417                       # Cumulative time (in ticks) in various power states
system.cpu1.numCycles                               1                       # number of cpu cycles simulated
system.cpu1.numWorkItemsStarted                     0                       # number of work items this cpu started
system.cpu1.numWorkItemsCompleted                   0                       # number of work items this cpu completed
system.cpu1.committedInsts                          1                       # Number of instructions committed
system.cpu1.committedOps                            1                       # Number of ops (including micro ops) committed
system.cpu1.num_int_alu_accesses                    1                       # Number of integer alu accesses
system.cpu1.num_fp_alu_accesses                     0                       # Number of float alu accesses
system.cpu1.num_func_calls                          0                       # number of times a function call or return occured
system.cpu1.num_conditional_control_insts            0                       # number of instructions that are conditional controls
system.cpu1.num_int_insts                           1                       # number of integer instructions
system.cpu1.num_fp_insts                            0                       # number of float instructions
system.cpu1.num_int_register_reads                  3                       # number of times the integer registers were read
system.cpu1.num_int_register_writes                 1                       # number of times the integer registers were written
system.cpu1.num_fp_register_reads                   0                       # number of times the floating registers were read
system.cpu1.num_fp_register_writes                  0                       # number of times the floating registers were written
system.cpu1.num_mem_refs                            0                       # number of memory refs
system.cpu1.num_load_insts                          0                       # Number of load instructions
system.cpu1.num_store_insts                         0                       # Number of store instructions
system.cpu1.num_idle_cycles                         0                       # Number of idle cycles
system.cpu1.num_busy_cycles                         1                       # Number of busy cycles
system.cpu1.not_idle_fraction                       1                       # Percentage of non-idle cycles
system.cpu1.idle_fraction                           0                       # Percentage of idle cycles
system.cpu1.op_class::No_OpClass                    0      0.00%      0.00% # Class of executed instruction
system.cpu1.op_class::IntAlu                        1    100.00%    100.00% # Class of executed instruction
system.cpu1.op_class::IntMult                       0      0.00%    100.00% # Class of executed instruction
system.cpu1.op_class::IntDiv                        0      0.00%    100.00% # Class of executed instruction
system.cpu1.op_class::FloatAdd                      0      0.00%    100.00% # Class of executed instruction
system.cpu1.op_class::FloatCmp                      0      0.00%    100.00% # Class of executed instruction
system.cpu1.op_class::FloatCvt                      0      0.00%    100.00% # Class of executed instruction
system.cpu1.op_class::FloatMult                     0      0.00%    100.00% # Class of executed instruction
system.cpu1.op_class::FloatMultAcc                  0      0.00%    100.00% # Class of executed instruction
system.cpu1.op_class::FloatDiv                      0      0.00%    100.00% # Class of executed instruction
system.cpu1.op_class::FloatMisc                     0      0.00%    100.00% # Class of executed instruction
system.cpu1.op_class::FloatSqrt                     0      0.00%    100.00% # Class of executed instruction
system.cpu1.op_class::SimdAdd                       0      0.00%    100.00% # Class of executed instruction
system.cpu1.op_class::SimdAddAcc                    0      0.00%    100.00% # Class of executed instruction
system.cpu1.op_class::SimdAlu                       0      0.00%    100.00% # Class of executed instruction
system.cpu1.op_class::SimdCmp                       0      0.00%    100.00% # Class of executed instruction
system.cpu1.op_class::SimdCvt                       0      0.00%    100.00% # Class of executed instruction
system.cpu1.op_class::SimdMisc                      0      0.00%    100.00% # Class of executed instruction
system.cpu1.op_class::SimdMult                      0      0.00%    100.00% # Class of executed instruction
system.cpu1.op_class::SimdMultAcc                   0      0.00%    100.00% # Class of executed instruction
system.cpu1.op_class::SimdShift                     0      0.00%    100.00% # Class of executed instruction
system.cpu1.op_class::SimdShiftAcc                  0      0.00%    100.00% # Class of executed instruction
system.cpu1.op_class::SimdSqrt                      0      0.00%    100.00% # Class of executed instruction
system.cpu1.op_class::SimdFloatAdd                  0      0.00%    100.00% # Class of executed instruction
system.cpu1.op_class::SimdFloatAlu                  0      0.00%    100.00% # Class of executed instruction
system.cpu1.op_class::SimdFloatCmp                  0      0.00%    100.00% # Class of executed instruction
system.cpu1.op_class::SimdFloatCvt                  0      0.00%    100.00% # Class of executed instruction
system.cpu1.op_class::SimdFloatDiv                  0      0.00%    100.00% # Class of executed instruction
system.cpu1.op_class::SimdFloatMisc                 0      0.00%    100.00% # Class of executed instruction
system.cpu1.op_class::SimdFloatMult                 0      0.00%    100.00% # Class of executed instruction
system.cpu1.op_class::SimdFloatMultAcc              0      0.00%    100.00% # Class of executed instruction
system.cpu1.op_class::SimdFloatSqrt                 0      0.00%    100.00% # Class of executed instruction
system.cpu1.op_class::MemRead                       0      0.00%    100.00% # Class of executed instruction
system.cpu1.op_class::MemWrite                      0      0.00%    100.00% # Class of executed instruction
system.cpu1.op_class::FloatMemRead                  0      0.00%    100.00% # Class of executed instruction
system.cpu1.op_class::FloatMemWrite                 0      0.00%    100.00% # Class of executed instruction
system.cpu1.op_class::IprAccess                     0      0.00%    100.00% # Class of executed instruction
system.cpu1.op_class::InstPrefetch                  0      0.00%    100.00% # Class of executed instruction
system.cpu1.op_class::total                         1                       # Class of executed instruction
system.cpu1.dcache.tags.pwrStateResidencyTicks::UNDEFINED       207417                       # Cumulative time (in ticks) in various power states
system.cpu1.dcache.tags.replacements                0                       # number of replacements
system.cpu1.dcache.tags.tagsinuse            0.104422                       # Cycle average of tags in use
system.cpu1.dcache.tags.total_refs                  0                       # Total number of references to valid blocks.
system.cpu1.dcache.tags.sampled_refs                0                       # Sample count of references to valid blocks.
system.cpu1.dcache.tags.avg_refs                  nan                       # Average number of references to valid blocks.
system.cpu1.dcache.tags.warmup_cycle                0                       # Cycle when the warmup percentage was hit.
system.cpu1.dcache.tags.occ_blocks::switch_cpus1.data     0.104422                       # Average occupied blocks per requestor
system.cpu1.dcache.tags.occ_percent::switch_cpus1.data     0.000816                       # Average percentage of cache occupancy
system.cpu1.dcache.tags.occ_percent::total     0.000816                       # Average percentage of cache occupancy
system.cpu1.dcache.tags.occ_task_id_blocks::1024            1                       # Occupied blocks per task id
system.cpu1.dcache.tags.age_task_id_blocks_1024::0            1                       # Occupied blocks per task id
system.cpu1.dcache.tags.occ_task_id_percent::1024     0.007812                       # Percentage of cache occupancy per task id
system.cpu1.dcache.tags.tag_accesses               33                       # Number of tag accesses
system.cpu1.dcache.tags.data_accesses              33                       # Number of data accesses
system.cpu1.dcache.pwrStateResidencyTicks::UNDEFINED       207417                       # Cumulative time (in ticks) in various power states
system.cpu1.dcache.WriteReq_hits::switch_cpus1.data            2                       # number of WriteReq hits
system.cpu1.dcache.WriteReq_hits::total             2                       # number of WriteReq hits
system.cpu1.dcache.demand_hits::switch_cpus1.data            2                       # number of demand (read+write) hits
system.cpu1.dcache.demand_hits::total               2                       # number of demand (read+write) hits
system.cpu1.dcache.overall_hits::switch_cpus1.data            2                       # number of overall hits
system.cpu1.dcache.overall_hits::total              2                       # number of overall hits
system.cpu1.dcache.ReadReq_misses::switch_cpus1.data            1                       # number of ReadReq misses
system.cpu1.dcache.ReadReq_misses::total            1                       # number of ReadReq misses
system.cpu1.dcache.WriteReq_misses::switch_cpus1.data            1                       # number of WriteReq misses
system.cpu1.dcache.WriteReq_misses::total            1                       # number of WriteReq misses
system.cpu1.dcache.demand_misses::switch_cpus1.data            2                       # number of demand (read+write) misses
system.cpu1.dcache.demand_misses::total             2                       # number of demand (read+write) misses
system.cpu1.dcache.overall_misses::switch_cpus1.data            2                       # number of overall misses
system.cpu1.dcache.overall_misses::total            2                       # number of overall misses
[...]
system.switch_cpus2.op_class_0::SimdCvt             0      0.00%     84.27% # Class of committed instruction
system.switch_cpus2.op_class_0::SimdMisc            0      0.00%     84.27% # Class of committed instruction
system.switch_cpus2.op_class_0::SimdMult            0      0.00%     84.27% # Class of committed instruction
system.switch_cpus2.op_class_0::SimdMultAcc            0      0.00%     84.27% # Class of committed instruction
system.switch_cpus2.op_class_0::SimdShift            0      0.00%     84.27% # Class of committed instruction
system.switch_cpus2.op_class_0::SimdShiftAcc            0      0.00%     84.27% # Class of committed instruction
system.switch_cpus2.op_class_0::SimdSqrt            0      0.00%     84.27% # Class of committed instruction
system.switch_cpus2.op_class_0::SimdFloatAdd            0      0.00%     84.27% # Class of committed instruction
system.switch_cpus2.op_class_0::SimdFloatAlu            0      0.00%     84.27% # Class of committed instruction
system.switch_cpus2.op_class_0::SimdFloatCmp            0      0.00%     84.27% # Class of committed instruction
system.switch_cpus2.op_class_0::SimdFloatCvt            0      0.00%     84.27% # Class of committed instruction
system.switch_cpus2.op_class_0::SimdFloatDiv            0      0.00%     84.27% # Class of committed instruction
system.switch_cpus2.op_class_0::SimdFloatMisc            0      0.00%     84.27% # Class of committed instruction
system.switch_cpus2.op_class_0::SimdFloatMult            0      0.00%     84.27% # Class of committed instruction
system.switch_cpus2.op_class_0::SimdFloatMultAcc            0      0.00%     84.27% # Class of committed instruction
system.switch_cpus2.op_class_0::SimdFloatSqrt            0      0.00%     84.27% # Class of committed instruction
system.switch_cpus2.op_class_0::MemRead       4241174      2.73%     87.00% # Class of committed instruction
system.switch_cpus2.op_class_0::MemWrite      2096535      1.35%     88.35% # Class of committed instruction
system.switch_cpus2.op_class_0::FloatMemRead     17535218     11.29%     99.64% # Class of committed instruction
system.switch_cpus2.op_class_0::FloatMemWrite       565798      0.36%    100.00% # Class of committed instruction
system.switch_cpus2.op_class_0::IprAccess            0      0.00%    100.00% # Class of committed instruction
system.switch_cpus2.op_class_0::InstPrefetch            0      0.00%    100.00% # Class of committed instruction
system.switch_cpus2.op_class_0::total       155372003                       # Class of committed instruction
system.switch_cpus2.tickCycles              308125847                       # Number of cycles that the object actually ticked
system.switch_cpus2.idleCycles              131149027                       # Total number of cycles that the object has spent stopped
system.switch_cpus3.branchPred.lookups             21                       # Number of BP lookups
system.switch_cpus3.branchPred.condPredicted           21                       # Number of conditional branches predicted
system.switch_cpus3.branchPred.condIncorrect           15                       # Number of conditional branches incorrect
system.switch_cpus3.branchPred.BTBLookups           11                       # Number of BTB lookups
system.switch_cpus3.branchPred.BTBHits              0                       # Number of BTB hits
system.switch_cpus3.branchPred.BTBCorrect            0                       # Number of correct BTB predictions (this stat may not work properly.
system.switch_cpus3.branchPred.BTBHitPct     0.000000                       # BTB Hit Percentage
system.switch_cpus3.branchPred.usedRAS              0                       # Number of times the RAS was used to get a target.
system.switch_cpus3.branchPred.RASInCorrect            0                       # Number of incorrect RAS predictions.
system.switch_cpus3.branchPred.indirectLookups           11                       # Number of indirect predictor lookups.
system.switch_cpus3.branchPred.indirectHits            0                       # Number of indirect target hits.
system.switch_cpus3.branchPred.indirectMisses           11                       # Number of indirect misses.
system.switch_cpus3.branchPredindirectMispredicted            5                       # Number of mispredicted indirect branches.
system.switch_cpus3.dtb.walker.pwrStateResidencyTicks::UNDEFINED 365915970042                       # Cumulative time (in ticks) in various power states
system.switch_cpus3.itb.walker.pwrStateResidencyTicks::UNDEFINED 365915970042                       # Cumulative time (in ticks) in various power states
system.switch_cpus3.pwrStateResidencyTicks::ON 365915970042                       # Cumulative time (in ticks) in various power states
system.switch_cpus3.numCycles               439274874                       # number of cpu cycles simulated
system.switch_cpus3.numWorkItemsStarted             0                       # number of work items this cpu started
system.switch_cpus3.numWorkItemsCompleted            0                       # number of work items this cpu completed
system.switch_cpus3.committedInsts           99985163                       # Number of instructions committed
system.switch_cpus3.committedOps            155089065                       # Number of ops (including micro ops) committed
system.switch_cpus3.discardedOps             53135251                       # Number of ops (including micro ops) which were discarded before commit
system.switch_cpus3.numFetchSuspends                0                       # Number of times Execute suspended instruction fetching
system.switch_cpus3.cpi                      4.393401                       # CPI: cycles per instruction
system.switch_cpus3.ipc                      0.227614                       # IPC: instructions per cycle
system.switch_cpus3.op_class_0::No_OpClass       492590      0.32%      0.32% # Class of committed instruction
system.switch_cpus3.op_class_0::IntAlu      108523335     69.97%     70.29% # Class of committed instruction
system.switch_cpus3.op_class_0::IntMult        427678      0.28%     70.57% # Class of committed instruction
system.switch_cpus3.op_class_0::IntDiv        2924082      1.89%     72.45% # Class of committed instruction
system.switch_cpus3.op_class_0::FloatAdd     18322756     11.81%     84.27% # Class of committed instruction
system.switch_cpus3.op_class_0::FloatCmp           40      0.00%     84.27% # Class of committed instruction
system.switch_cpus3.op_class_0::FloatCvt           60      0.00%     84.27% # Class of committed instruction
system.switch_cpus3.op_class_0::FloatMult          280      0.00%     84.27% # Class of committed instruction
system.switch_cpus3.op_class_0::FloatMultAcc            0      0.00%     84.27% # Class of committed instruction
system.switch_cpus3.op_class_0::FloatDiv          100      0.00%     84.27% # Class of committed instruction
system.switch_cpus3.op_class_0::FloatMisc            0      0.00%     84.27% # Class of committed instruction
system.switch_cpus3.op_class_0::FloatSqrt            0      0.00%     84.27% # Class of committed instruction
system.switch_cpus3.op_class_0::SimdAdd             0      0.00%     84.27% # Class of committed instruction
system.switch_cpus3.op_class_0::SimdAddAcc            0      0.00%     84.27% # Class of committed instruction
system.switch_cpus3.op_class_0::SimdAlu             0      0.00%     84.27% # Class of committed instruction
system.switch_cpus3.op_class_0::SimdCmp             0      0.00%     84.27% # Class of committed instruction
system.switch_cpus3.op_class_0::SimdCvt             0      0.00%     84.27% # Class of committed instruction
system.switch_cpus3.op_class_0::SimdMisc            0      0.00%     84.27% # Class of committed instruction
system.switch_cpus3.op_class_0::SimdMult            0      0.00%     84.27% # Class of committed instruction
system.switch_cpus3.op_class_0::SimdMultAcc            0      0.00%     84.27% # Class of committed instruction
system.switch_cpus3.op_class_0::SimdShift            0      0.00%     84.27% # Class of committed instruction
system.switch_cpus3.op_class_0::SimdShiftAcc            0      0.00%     84.27% # Class of committed instruction
system.switch_cpus3.op_class_0::SimdSqrt            0      0.00%     84.27% # Class of committed instruction
system.switch_cpus3.op_class_0::SimdFloatAdd            0      0.00%     84.27% # Class of committed instruction
system.switch_cpus3.op_class_0::SimdFloatAlu            0      0.00%     84.27% # Class of committed instruction
system.switch_cpus3.op_class_0::SimdFloatCmp            0      0.00%     84.27% # Class of committed instruction
system.switch_cpus3.op_class_0::SimdFloatCvt            0      0.00%     84.27% # Class of committed instruction
system.switch_cpus3.op_class_0::SimdFloatDiv            0      0.00%     84.27% # Class of committed instruction
system.switch_cpus3.op_class_0::SimdFloatMisc            0      0.00%     84.27% # Class of committed instruction
system.switch_cpus3.op_class_0::SimdFloatMult            0      0.00%     84.27% # Class of committed instruction
system.switch_cpus3.op_class_0::SimdFloatMultAcc            0      0.00%     84.27% # Class of committed instruction
system.switch_cpus3.op_class_0::SimdFloatSqrt            0      0.00%     84.27% # Class of committed instruction
system.switch_cpus3.op_class_0::MemRead       4240690      2.73%     87.00% # Class of committed instruction
system.switch_cpus3.op_class_0::MemWrite      2096534      1.35%     88.35% # Class of committed instruction
system.switch_cpus3.op_class_0::FloatMemRead     17495282     11.28%     99.64% # Class of committed instruction
system.switch_cpus3.op_class_0::FloatMemWrite       565638      0.36%    100.00% # Class of committed instruction
system.switch_cpus3.op_class_0::IprAccess            0      0.00%    100.00% # Class of committed instruction
system.switch_cpus3.op_class_0::InstPrefetch            0      0.00%    100.00% # Class of committed instruction
system.switch_cpus3.op_class_0::total       155089065                       # Class of committed instruction
system.switch_cpus3.tickCycles              307533943                       # Number of cycles that the object actually ticked
system.switch_cpus3.idleCycles              131740931                       # Total number of cycles that the object has spent stopped
system.tol2bus.snoop_filter.tot_requests    110867478                       # Total number of requests made to the snoop filter.
system.tol2bus.snoop_filter.hit_single_requests     55433235                       # Number of requests hitting in the snoop filter with a single holder of the requested data.
system.tol2bus.snoop_filter.hit_multi_requests            0                       # Number of requests hitting in the snoop filter with multiple (>1) holders of the requested data.
system.tol2bus.snoop_filter.tot_snoops           1004                       # Total number of snoops made to the snoop filter.
system.tol2bus.snoop_filter.hit_single_snoops         1004                       # Number of snoops hitting in the snoop filter with a single holder of the requested data.
system.tol2bus.snoop_filter.hit_multi_snoops            0                       # Number of snoops hitting in the snoop filter with multiple (>1) holders of the requested data.
system.tol2bus.pwrStateResidencyTicks::UNDEFINED 365915970042                       # Cumulative time (in ticks) in various power states
system.tol2bus.trans_dist::ReadResp          55040430                       # Transaction distribution
system.tol2bus.trans_dist::WritebackDirty     35832391                       # Transaction distribution
system.tol2bus.trans_dist::WritebackClean        45463                       # Transaction distribution
system.tol2bus.trans_dist::CleanEvict        19800440                       # Transaction distribution
system.tol2bus.trans_dist::ReadExReq           393815                       # Transaction distribution
system.tol2bus.trans_dist::ReadExResp          393817                       # Transaction distribution
system.tol2bus.trans_dist::ReadCleanReq         45963                       # Transaction distribution
system.tol2bus.trans_dist::ReadSharedReq     54994465                       # Transaction distribution
system.tol2bus.pkt_count_system.cpu0.icache.mem_side::system.l2.cpu_side        34352                       # Packet count per connected master and slave (bytes)
system.tol2bus.pkt_count_system.cpu0.dcache.mem_side::system.l2.cpu_side     41508320                       # Packet count per connected master and slave (bytes)
system.tol2bus.pkt_count_system.cpu1.icache.mem_side::system.l2.cpu_side        34337                       # Packet count per connected master and slave (bytes)
system.tol2bus.pkt_count_system.cpu1.dcache.mem_side::system.l2.cpu_side     41535513                       # Packet count per connected master and slave (bytes)
system.tol2bus.pkt_count_system.cpu2.icache.mem_side::system.l2.cpu_side        34355                       # Packet count per connected master and slave (bytes)
system.tol2bus.pkt_count_system.cpu2.dcache.mem_side::system.l2.cpu_side     41621114                       # Packet count per connected master and slave (bytes)
system.tol2bus.pkt_count_system.cpu3.icache.mem_side::system.l2.cpu_side        34349                       # Packet count per connected master and slave (bytes)
system.tol2bus.pkt_count_system.cpu3.dcache.mem_side::system.l2.cpu_side     41499385                       # Packet count per connected master and slave (bytes)
system.tol2bus.pkt_count::total             166301725                       # Packet count per connected master and slave (bytes)
system.tol2bus.pkt_size_system.cpu0.icache.mem_side::system.l2.cpu_side      1463040                       # Cumulative packet size per connected master and slave (bytes)
system.tol2bus.pkt_size_system.cpu0.dcache.mem_side::system.l2.cpu_side   1432994496                       # Cumulative packet size per connected master and slave (bytes)
system.tol2bus.pkt_size_system.cpu1.icache.mem_side::system.l2.cpu_side      1462400                       # Cumulative packet size per connected master and slave (bytes)
system.tol2bus.pkt_size_system.cpu1.dcache.mem_side::system.l2.cpu_side   1482798144                       # Cumulative packet size per connected master and slave (bytes)
system.tol2bus.pkt_size_system.cpu2.icache.mem_side::system.l2.cpu_side      1463168                       # Cumulative packet size per connected master and slave (bytes)
system.tol2bus.pkt_size_system.cpu2.dcache.mem_side::system.l2.cpu_side   1490219072                       # Cumulative packet size per connected master and slave (bytes)
system.tol2bus.pkt_size_system.cpu3.icache.mem_side::system.l2.cpu_side      1462912                       # Cumulative packet size per connected master and slave (bytes)
system.tol2bus.pkt_size_system.cpu3.dcache.mem_side::system.l2.cpu_side   1420757696                       # Cumulative packet size per connected master and slave (bytes)
system.tol2bus.pkt_size::total             5832620928                       # Cumulative packet size per connected master and slave (bytes)
system.tol2bus.snoops                          245059                       # Total snoops (count)
system.tol2bus.snoopTraffic                  11353536                       # Total snoop traffic (bytes)
system.tol2bus.snoop_fanout::samples         55679302                       # Request fanout histogram
system.tol2bus.snoop_fanout::mean            0.000018                       # Request fanout histogram
system.tol2bus.snoop_fanout::stdev           0.004246                       # Request fanout histogram
system.tol2bus.snoop_fanout::underflows             0      0.00%      0.00% # Request fanout histogram
system.tol2bus.snoop_fanout::0               55678298    100.00%    100.00% # Request fanout histogram
system.tol2bus.snoop_fanout::1                   1004      0.00%    100.00% # Request fanout histogram
system.tol2bus.snoop_fanout::2                      0      0.00%    100.00% # Request fanout histogram
system.tol2bus.snoop_fanout::3                      0      0.00%    100.00% # Request fanout histogram
system.tol2bus.snoop_fanout::4                      0      0.00%    100.00% # Request fanout histogram
system.tol2bus.snoop_fanout::5                      0      0.00%    100.00% # Request fanout histogram
system.tol2bus.snoop_fanout::6                      0      0.00%    100.00% # Request fanout histogram
system.tol2bus.snoop_fanout::7                      0      0.00%    100.00% # Request fanout histogram
system.tol2bus.snoop_fanout::8                      0      0.00%    100.00% # Request fanout histogram
system.tol2bus.snoop_fanout::9                      0      0.00%    100.00% # Request fanout histogram
system.tol2bus.snoop_fanout::10                     0      0.00%    100.00% # Request fanout histogram
system.tol2bus.snoop_fanout::11                     0      0.00%    100.00% # Request fanout histogram
system.tol2bus.snoop_fanout::12                     0      0.00%    100.00% # Request fanout histogram
system.tol2bus.snoop_fanout::13                     0      0.00%    100.00% # Request fanout histogram
system.tol2bus.snoop_fanout::14                     0      0.00%    100.00% # Request fanout histogram
system.tol2bus.snoop_fanout::15                     0      0.00%    100.00% # Request fanout histogram
system.tol2bus.snoop_fanout::16                     0      0.00%    100.00% # Request fanout histogram
system.tol2bus.snoop_fanout::overflows              0      0.00%    100.00% # Request fanout histogram
system.tol2bus.snoop_fanout::min_value              0                       # Request fanout histogram
system.tol2bus.snoop_fanout::max_value              1                       # Request fanout histogram
system.tol2bus.snoop_fanout::total           55679302                       # Request fanout histogram
system.tol2bus.reqLayer0.occupancy       151829567204                       # Layer occupancy (ticks)
system.tol2bus.reqLayer0.utilization             41.5                       # Layer utilization (%)
system.tol2bus.respLayer0.occupancy          28738479                       # Layer occupancy (ticks)
system.tol2bus.respLayer0.utilization             0.0                       # Layer utilization (%)
system.tol2bus.respLayer1.occupancy       34931162370                       # Layer occupancy (ticks)
system.tol2bus.respLayer1.utilization             9.5                       # Layer utilization (%)
system.tol2bus.respLayer4.occupancy          28727648                       # Layer occupancy (ticks)
system.tol2bus.respLayer4.utilization             0.0                       # Layer utilization (%)
system.tol2bus.respLayer5.occupancy       34953766558                       # Layer occupancy (ticks)
system.tol2bus.respLayer5.utilization             9.6                       # Layer utilization (%)
system.tol2bus.respLayer8.occupancy          28749298                       # Layer occupancy (ticks)
system.tol2bus.respLayer8.utilization             0.0                       # Layer utilization (%)
system.tol2bus.respLayer9.occupancy       35008844210                       # Layer occupancy (ticks)
system.tol2bus.respLayer9.utilization             9.6                       # Layer utilization (%)
system.tol2bus.respLayer12.occupancy         28742636                       # Layer occupancy (ticks)
system.tol2bus.respLayer12.utilization            0.0                       # Layer utilization (%)
system.tol2bus.respLayer13.occupancy      34886553999                       # Layer occupancy (ticks)
system.tol2bus.respLayer13.utilization            9.5                       # Layer utilization (%)

---------- End Simulation Statistics   ----------
