
---------- Begin Simulation Statistics ----------
sim_seconds                                  0.003296                       # Number of seconds simulated
sim_ticks                                  3296150308                       # Number of ticks simulated
final_tick                                89791215808                       # Number of ticks from beginning of simulation (restored from checkpoints and never reset)
sim_freq                                 1000000000000                       # Frequency of simulated ticks
host_inst_rate                                  55118                       # Simulator instruction rate (inst/s)
host_op_rate                                    89581                       # Simulator op (including micro ops) rate (op/s)
host_tick_rate                               45419153                       # Simulator tick rate (ticks/s)
host_mem_usage                                4484452                       # Number of bytes of host memory used
host_seconds                                    72.57                       # Real time elapsed on the host
sim_insts                                     4000000                       # Number of instructions simulated
sim_ops                                       6501044                       # Number of ops (including micro ops) simulated
system.voltage_domain.voltage                       1                       # Voltage in Volts
system.clk_domain.clock                          1000                       # Clock period in ticks
system.mem_ctrls.pwrStateResidencyTicks::UNDEFINED  89791215808                       # Cumulative time (in ticks) in various power states
system.mem_ctrls.bytes_read::cpu0.inst             64                       # Number of bytes read from this memory
system.mem_ctrls.bytes_read::cpu0.data             64                       # Number of bytes read from this memory
system.mem_ctrls.bytes_read::cpu1.inst             64                       # Number of bytes read from this memory
system.mem_ctrls.bytes_read::cpu1.data             64                       # Number of bytes read from this memory
system.mem_ctrls.bytes_read::cpu2.inst             64                       # Number of bytes read from this memory
system.mem_ctrls.bytes_read::cpu2.data             64                       # Number of bytes read from this memory
system.mem_ctrls.bytes_read::cpu3.inst             64                       # Number of bytes read from this memory
system.mem_ctrls.bytes_read::cpu3.data             64                       # Number of bytes read from this memory
system.mem_ctrls.bytes_read::switch_cpus0.inst         3264                       # Number of bytes read from this memory
system.mem_ctrls.bytes_read::switch_cpus0.data        33472                       # Number of bytes read from this memory
system.mem_ctrls.bytes_read::switch_cpus1.inst         3264                       # Number of bytes read from this memory
system.mem_ctrls.bytes_read::switch_cpus1.data        33472                       # Number of bytes read from this memory
system.mem_ctrls.bytes_read::switch_cpus2.inst         3264                       # Number of bytes read from this memory
system.mem_ctrls.bytes_read::switch_cpus2.data        33472                       # Number of bytes read from this memory
system.mem_ctrls.bytes_read::switch_cpus3.inst         3264                       # Number of bytes read from this memory
system.mem_ctrls.bytes_read::switch_cpus3.data        33472                       # Number of bytes read from this memory
system.mem_ctrls.bytes_read::total             147456                       # Number of bytes read from this memory
system.mem_ctrls.bytes_inst_read::cpu0.inst           64                       # Number of instructions bytes read from this memory
system.mem_ctrls.bytes_inst_read::cpu1.inst           64                       # Number of instructions bytes read from this memory
system.mem_ctrls.bytes_inst_read::cpu2.inst           64                       # Number of instructions bytes read from this memory
system.mem_ctrls.bytes_inst_read::cpu3.inst           64                       # Number of instructions bytes read from this memory
system.mem_ctrls.bytes_inst_read::switch_cpus0.inst         3264                       # Number of instructions bytes read from this memory
system.mem_ctrls.bytes_inst_read::switch_cpus1.inst         3264                       # Number of instructions bytes read from this memory
system.mem_ctrls.bytes_inst_read::switch_cpus2.inst         3264                       # Number of instructions bytes read from this memory
system.mem_ctrls.bytes_inst_read::switch_cpus3.inst         3264                       # Number of instructions bytes read from this memory
system.mem_ctrls.bytes_inst_read::total         13312                       # Number of instructions bytes read from this memory
system.mem_ctrls.num_reads::cpu0.inst               1                       # Number of read requests responded to by this memory
system.mem_ctrls.num_reads::cpu0.data               1                       # Number of read requests responded to by this memory
system.mem_ctrls.num_reads::cpu1.inst               1                       # Number of read requests responded to by this memory
system.mem_ctrls.num_reads::cpu1.data               1                       # Number of read requests responded to by this memory
system.mem_ctrls.num_reads::cpu2.inst               1                       # Number of read requests responded to by this memory
system.mem_ctrls.num_reads::cpu2.data               1                       # Number of read requests responded to by this memory
system.mem_ctrls.num_reads::cpu3.inst               1                       # Number of read requests responded to by this memory
system.mem_ctrls.num_reads::cpu3.data               1                       # Number of read requests responded to by this memory
system.mem_ctrls.num_reads::switch_cpus0.inst           51                       # Number of read requests responded to by this memory
system.mem_ctrls.num_reads::switch_cpus0.data          523                       # Number of read requests responded to by this memory
system.mem_ctrls.num_reads::switch_cpus1.inst           51                       # Number of read requests responded to by this memory
system.mem_ctrls.num_reads::switch_cpus1.data          523                       # Number of read requests responded to by this memory
system.mem_ctrls.num_reads::switch_cpus2.inst           51                       # Number of read requests responded to by this memory
system.mem_ctrls.num_reads::switch_cpus2.data          523                       # Number of read requests responded to by this memory
system.mem_ctrls.num_reads::switch_cpus3.inst           51                       # Number of read requests responded to by this memory
system.mem_ctrls.num_reads::switch_cpus3.data          523                       # Number of read requests responded to by this memory
system.mem_ctrls.num_reads::total                2304                       # Number of read requests responded to by this memory
system.mem_ctrls.bw_read::cpu0.inst             19417                       # Total read bandwidth from this memory (bytes/s)
system.mem_ctrls.bw_read::cpu0.data             19417                       # Total read bandwidth from this memory (bytes/s)
system.mem_ctrls.bw_read::cpu1.inst             19417                       # Total read bandwidth from this memory (bytes/s)
system.mem_ctrls.bw_read::cpu1.data             19417                       # Total read bandwidth from this memory (bytes/s)
system.mem_ctrls.bw_read::cpu2.inst             19417                       # Total read bandwidth from this memory (bytes/s)
system.mem_ctrls.bw_read::cpu2.data             19417                       # Total read bandwidth from this memory (bytes/s)
system.mem_ctrls.bw_read::cpu3.inst             19417                       # Total read bandwidth from this memory (bytes/s)
system.mem_ctrls.bw_read::cpu3.data             19417                       # Total read bandwidth from this memory (bytes/s)
system.mem_ctrls.bw_read::switch_cpus0.inst       990246                       # Total read bandwidth from this memory (bytes/s)
system.mem_ctrls.bw_read::switch_cpus0.data     10154877                       # Total read bandwidth from this memory (bytes/s)
system.mem_ctrls.bw_read::switch_cpus1.inst       990246                       # Total read bandwidth from this memory (bytes/s)
system.mem_ctrls.bw_read::switch_cpus1.data     10154877                       # Total read bandwidth from this memory (bytes/s)
system.mem_ctrls.bw_read::switch_cpus2.inst       990246                       # Total read bandwidth from this memory (bytes/s)
system.mem_ctrls.bw_read::switch_cpus2.data     10154877                       # Total read bandwidth from this memory (bytes/s)
system.mem_ctrls.bw_read::switch_cpus3.inst       990246                       # Total read bandwidth from this memory (bytes/s)
system.mem_ctrls.bw_read::switch_cpus3.data     10154877                       # Total read bandwidth from this memory (bytes/s)
system.mem_ctrls.bw_read::total              44735824                       # Total read bandwidth from this memory (bytes/s)
system.mem_ctrls.bw_inst_read::cpu0.inst        19417                       # Instruction read bandwidth from this memory (bytes/s)
system.mem_ctrls.bw_inst_read::cpu1.inst        19417                       # Instruction read bandwidth from this memory (bytes/s)
system.mem_ctrls.bw_inst_read::cpu2.inst        19417                       # Instruction read bandwidth from this memory (bytes/s)
system.mem_ctrls.bw_inst_read::cpu3.inst        19417                       # Instruction read bandwidth from this memory (bytes/s)
system.mem_ctrls.bw_inst_read::switch_cpus0.inst       990246                       # Instruction read bandwidth from this memory (bytes/s)
system.mem_ctrls.bw_inst_read::switch_cpus1.inst       990246                       # Instruction read bandwidth from this memory (bytes/s)
system.mem_ctrls.bw_inst_read::switch_cpus2.inst       990246                       # Instruction read bandwidth from this memory (bytes/s)
system.mem_ctrls.bw_inst_read::switch_cpus3.inst       990246                       # Instruction read bandwidth from this memory (bytes/s)
system.mem_ctrls.bw_inst_read::total          4038651                       # Instruction read bandwidth from this memory (bytes/s)
system.mem_ctrls.bw_total::cpu0.inst            19417                       # Total bandwidth to/from this memory (bytes/s)
system.mem_ctrls.bw_total::cpu0.data            19417                       # Total bandwidth to/from this memory (bytes/s)
system.mem_ctrls.bw_total::cpu1.inst            19417                       # Total bandwidth to/from this memory (bytes/s)
system.mem_ctrls.bw_total::cpu1.data            19417                       # Total bandwidth to/from this memory (bytes/s)
system.mem_ctrls.bw_total::cpu2.inst            19417                       # Total bandwidth to/from this memory (bytes/s)
system.mem_ctrls.bw_total::cpu2.data            19417                       # Total bandwidth to/from this memory (bytes/s)
system.mem_ctrls.bw_total::cpu3.inst            19417                       # Total bandwidth to/from this memory (bytes/s)
system.mem_ctrls.bw_total::cpu3.data            19417                       # Total bandwidth to/from this memory (bytes/s)
system.mem_ctrls.bw_total::switch_cpus0.inst       990246                       # Total bandwidth to/from this memory (bytes/s)
system.mem_ctrls.bw_total::switch_cpus0.data     10154877                       # Total bandwidth to/from this memory (bytes/s)
system.mem_ctrls.bw_total::switch_cpus1.inst       990246                       # Total bandwidth to/from this memory (bytes/s)
system.mem_ctrls.bw_total::switch_cpus1.data     10154877                       # Total bandwidth to/from this memory (bytes/s)
system.mem_ctrls.bw_total::switch_cpus2.inst       990246                       # Total bandwidth to/from this memory (bytes/s)
system.mem_ctrls.bw_total::switch_cpus2.data     10154877                       # Total bandwidth to/from this memory (bytes/s)
system.mem_ctrls.bw_total::switch_cpus3.inst       990246                       # Total bandwidth to/from this memory (bytes/s)
system.mem_ctrls.bw_total::switch_cpus3.data     10154877                       # Total bandwidth to/from this memory (bytes/s)
system.mem_ctrls.bw_total::total             44735824                       # Total bandwidth to/from this memory (bytes/s)
system.mem_ctrls.readReqs                        2296                       # Number of read requests accepted
system.mem_ctrls.writeReqs                          0                       # Number of write requests accepted
system.mem_ctrls.readBursts                      2296                       # Number of DRAM read bursts, including those serviced by the write queue
system.mem_ctrls.writeBursts                        0                       # Number of DRAM write bursts, including those merged in the write queue
system.mem_ctrls.bytesReadDRAM                 146944                       # Total number of bytes read from DRAM
system.mem_ctrls.bytesReadWrQ                       0                       # Total number of bytes read from write queue
system.mem_ctrls.bytesWritten                       0                       # Total number of bytes written to DRAM
system.mem_ctrls.bytesReadSys                  146944                       # Total read bytes from the system interface side
system.mem_ctrls.bytesWrittenSys                    0                       # Total written bytes from the system interface side
system.mem_ctrls.servicedByWrQ                      0                       # Number of DRAM read bursts serviced by the write queue
system.mem_ctrls.mergedWrBursts                     0                       # Number of DRAM write bursts merged with an existing one
system.mem_ctrls.neitherReadNorWriteReqs            0                       # Number of requests that are neither read nor write
system.mem_ctrls.perBankRdBursts::0                26                       # Per bank write bursts
system.mem_ctrls.perBankRdBursts::1                34                       # Per bank write bursts
system.mem_ctrls.perBankRdBursts::2                34                       # Per bank write bursts
system.mem_ctrls.perBankRdBursts::3                50                       # Per bank write bursts
system.mem_ctrls.perBankRdBursts::4               254                       # Per bank write bursts
system.mem_ctrls.perBankRdBursts::5               486                       # Per bank write bursts
system.mem_ctrls.perBankRdBursts::6               527                       # Per bank write bursts
system.mem_ctrls.perBankRdBursts::7               499                       # Per bank write bursts
system.mem_ctrls.perBankRdBursts::8               279                       # Per bank write bursts
system.mem_ctrls.perBankRdBursts::9                36                       # Per bank write bursts
system.mem_ctrls.perBankRdBursts::10                9                       # Per bank write bursts
system.mem_ctrls.perBankRdBursts::11               26                       # Per bank write bursts
system.mem_ctrls.perBankRdBursts::12               17                       # Per bank write bursts
system.mem_ctrls.perBankRdBursts::13               17                       # Per bank write bursts
system.mem_ctrls.perBankRdBursts::14                2                       # Per bank write bursts
system.mem_ctrls.perBankRdBursts::15                0                       # Per bank write bursts
system.mem_ctrls.perBankWrBursts::0                 0                       # Per bank write bursts
system.mem_ctrls.perBankWrBursts::1                 0                       # Per bank write bursts
system.mem_ctrls.perBankWrBursts::2                 0                       # Per bank write bursts
system.mem_ctrls.perBankWrBursts::3                 0                       # Per bank write bursts
system.mem_ctrls.perBankWrBursts::4                 0                       # Per bank write bursts
system.mem_ctrls.perBankWrBursts::5                 0                       # Per bank write bursts
system.mem_ctrls.perBankWrBursts::6                 0                       # Per bank write bursts
system.mem_ctrls.perBankWrBursts::7                 0                       # Per bank write bursts
system.mem_ctrls.perBankWrBursts::8                 0                       # Per bank write bursts
system.mem_ctrls.perBankWrBursts::9                 0                       # Per bank write bursts
system.mem_ctrls.perBankWrBursts::10                0                       # Per bank write bursts
system.mem_ctrls.perBankWrBursts::11                0                       # Per bank write bursts
system.mem_ctrls.perBankWrBursts::12                0                       # Per bank write bursts
system.mem_ctrls.perBankWrBursts::13                0                       # Per bank write bursts
system.mem_ctrls.perBankWrBursts::14                0                       # Per bank write bursts
system.mem_ctrls.perBankWrBursts::15                0                       # Per bank write bursts
system.mem_ctrls.numRdRetry                         0                       # Number of times read queue was full causing retry
system.mem_ctrls.numWrRetry                         0                       # Number of times write queue was full causing retry
system.mem_ctrls.totGap                    1491273252                       # Total gap between requests
system.mem_ctrls.readPktSize::0                     0                       # Read request sizes (log2)
system.mem_ctrls.readPktSize::1                     0                       # Read request sizes (log2)
system.mem_ctrls.readPktSize::2                     0                       # Read request sizes (log2)
system.mem_ctrls.readPktSize::3                     0                       # Read request sizes (log2)
system.mem_ctrls.readPktSize::4                     0                       # Read request sizes (log2)
system.mem_ctrls.readPktSize::5                     0                       # Read request sizes (log2)
system.mem_ctrls.readPktSize::6                  2296                       # Read request sizes (log2)
system.mem_ctrls.writePktSize::0                    0                       # Write request sizes (log2)
system.mem_ctrls.writePktSize::1                    0                       # Write request sizes (log2)
system.mem_ctrls.writePktSize::2                    0                       # Write request sizes (log2)
system.mem_ctrls.writePktSize::3                    0                       # Write request sizes (log2)
system.mem_ctrls.writePktSize::4                    0                       # Write request sizes (log2)
system.mem_ctrls.writePktSize::5                    0                       # Write request sizes (log2)
system.mem_ctrls.writePktSize::6                    0                       # Write request sizes (log2)
system.mem_ctrls.rdQLenPdf::0                     869                       # What read queue length does an incoming req see
system.mem_ctrls.rdQLenPdf::1                     949                       # What read queue length does an incoming req see
system.mem_ctrls.rdQLenPdf::2                     372                       # What read queue length does an incoming req see
system.mem_ctrls.rdQLenPdf::3                      99                       # What read queue length does an incoming req see
system.mem_ctrls.rdQLenPdf::4                       5                       # What read queue length does an incoming req see
system.mem_ctrls.rdQLenPdf::5                       1                       # What read queue length does an incoming req see
system.mem_ctrls.rdQLenPdf::6                       1                       # What read queue length does an incoming req see
system.mem_ctrls.rdQLenPdf::7                       0                       # What read queue length does an incoming req see
system.mem_ctrls.rdQLenPdf::8                       0                       # What read queue length does an incoming req see
system.mem_ctrls.rdQLenPdf::9                       0                       # What read queue length does an incoming req see
system.mem_ctrls.rdQLenPdf::10                      0                       # What read queue length does an incoming req see
system.mem_ctrls.rdQLenPdf::11                      0                       # What read queue length does an incoming req see
system.mem_ctrls.rdQLenPdf::12                      0                       # What read queue length does an incoming req see
system.mem_ctrls.rdQLenPdf::13                      0                       # What read queue length does an incoming req see
system.mem_ctrls.rdQLenPdf::14                      0                       # What read queue length does an incoming req see
system.mem_ctrls.rdQLenPdf::15                      0                       # What read queue length does an incoming req see
system.mem_ctrls.rdQLenPdf::16                      0                       # What read queue length does an incoming req see
system.mem_ctrls.rdQLenPdf::17                      0                       # What read queue length does an incoming req see
system.mem_ctrls.rdQLenPdf::18                      0                       # What read queue length does an incoming req see
system.mem_ctrls.rdQLenPdf::19                      0                       # What read queue length does an incoming req see
system.mem_ctrls.rdQLenPdf::20                      0                       # What read queue length does an incoming req see
system.mem_ctrls.rdQLenPdf::21                      0                       # What read queue length does an incoming req see
system.mem_ctrls.rdQLenPdf::22                      0                       # What read queue length does an incoming req see
system.mem_ctrls.rdQLenPdf::23                      0                       # What read queue length does an incoming req see
system.mem_ctrls.rdQLenPdf::24                      0                       # What read queue length does an incoming req see
system.mem_ctrls.rdQLenPdf::25                      0                       # What read queue length does an incoming req see
system.mem_ctrls.rdQLenPdf::26                      0                       # What read queue length does an incoming req see
system.mem_ctrls.rdQLenPdf::27                      0                       # What read queue length does an incoming req see
system.mem_ctrls.rdQLenPdf::28                      0                       # What read queue length does an incoming req see
system.mem_ctrls.rdQLenPdf::29                      0                       # What read queue length does an incoming req see
system.mem_ctrls.rdQLenPdf::30                      0                       # What read queue length does an incoming req see
system.mem_ctrls.rdQLenPdf::31                      0                       # What read queue length does an incoming req see
system.mem_ctrls.wrQLenPdf::0                       0                       # What write queue length does an incoming req see
system.mem_ctrls.wrQLenPdf::1                       0                       # What write queue length does an incoming req see
system.mem_ctrls.wrQLenPdf::2                       0                       # What write queue length does an incoming req see
system.mem_ctrls.wrQLenPdf::3                       0                       # What write queue length does an incoming req see
system.mem_ctrls.wrQLenPdf::4                       0                       # What write queue length does an incoming req see
system.mem_ctrls.wrQLenPdf::5                       0                       # What write queue length does an incoming req see
system.mem_ctrls.wrQLenPdf::6                       0                       # What write queue length does an incoming req see
system.mem_ctrls.wrQLenPdf::7                       0                       # What write queue length does an incoming req see
system.mem_ctrls.wrQLenPdf::8                       0                       # What write queue length does an incoming req see
system.mem_ctrls.wrQLenPdf::9                       0                       # What write queue length does an incoming req see
system.mem_ctrls.wrQLenPdf::10                      0                       # What write queue length does an incoming req see
system.mem_ctrls.wrQLenPdf::11                      0                       # What write queue length does an incoming req see
system.mem_ctrls.wrQLenPdf::12                      0                       # What write queue length does an incoming req see
system.mem_ctrls.wrQLenPdf::13                      0                       # What write queue length does an incoming req see
system.mem_ctrls.wrQLenPdf::14                      0                       # What write queue length does an incoming req see
system.mem_ctrls.wrQLenPdf::15                      0                       # What write queue length does an incoming req see
system.mem_ctrls.wrQLenPdf::16                      0                       # What write queue length does an incoming req see
system.mem_ctrls.wrQLenPdf::17                      0                       # What write queue length does an incoming req see
system.mem_ctrls.wrQLenPdf::18                      0                       # What write queue length does an incoming req see
system.mem_ctrls.wrQLenPdf::19                      0                       # What write queue length does an incoming req see
system.mem_ctrls.wrQLenPdf::20                      0                       # What write queue length does an incoming req see
system.mem_ctrls.wrQLenPdf::21                      0                       # What write queue length does an incoming req see
system.mem_ctrls.wrQLenPdf::22                      0                       # What write queue length does an incoming req see
system.mem_ctrls.wrQLenPdf::23                      0                       # What write queue length does an incoming req see
system.mem_ctrls.wrQLenPdf::24                      0                       # What write queue length does an incoming req see
system.mem_ctrls.wrQLenPdf::25                      0                       # What write queue length does an incoming req see
system.mem_ctrls.wrQLenPdf::26                      0                       # What write queue length does an incoming req see
system.mem_ctrls.wrQLenPdf::27                      0                       # What write queue length does an incoming req see
system.mem_ctrls.wrQLenPdf::28                      0                       # What write queue length does an incoming req see
system.mem_ctrls.wrQLenPdf::29                      0                       # What write queue length does an incoming req see
system.mem_ctrls.wrQLenPdf::30                      0                       # What write queue length does an incoming req see
system.mem_ctrls.wrQLenPdf::31                      0                       # What write queue length does an incoming req see
system.mem_ctrls.wrQLenPdf::32                      0                       # What write queue length does an incoming req see
system.mem_ctrls.wrQLenPdf::33                      0                       # What write queue length does an incoming req see
system.mem_ctrls.wrQLenPdf::34                      0                       # What write queue length does an incoming req see
system.mem_ctrls.wrQLenPdf::35                      0                       # What write queue length does an incoming req see
system.mem_ctrls.wrQLenPdf::36                      0                       # What write queue length does an incoming req see
system.mem_ctrls.wrQLenPdf::37                      0                       # What write queue length does an incoming req see
system.mem_ctrls.wrQLenPdf::38                      0                       # What write queue length does an incoming req see
system.mem_ctrls.wrQLenPdf::39                      0                       # What write queue length does an incoming req see
system.mem_ctrls.wrQLenPdf::40                      0                       # What write queue length does an incoming req see
system.mem_ctrls.wrQLenPdf::41                      0                       # What write queue length does an incoming req see
system.mem_ctrls.wrQLenPdf::42                      0                       # What write queue length does an incoming req see
system.mem_ctrls.wrQLenPdf::43                      0                       # What write queue length does an incoming req see
system.mem_ctrls.wrQLenPdf::44                      0                       # What write queue length does an incoming req see
system.mem_ctrls.wrQLenPdf::45                      0                       # What write queue length does an incoming req see
system.mem_ctrls.wrQLenPdf::46                      0                       # What write queue length does an incoming req see
system.mem_ctrls.wrQLenPdf::47                      0                       # What write queue length does an incoming req see
system.mem_ctrls.wrQLenPdf::48                      0                       # What write queue length does an incoming req see
system.mem_ctrls.wrQLenPdf::49                      0                       # What write queue length does an incoming req see
system.mem_ctrls.wrQLenPdf::50                      0                       # What write queue length does an incoming req see
system.mem_ctrls.wrQLenPdf::51                      0                       # What write queue length does an incoming req see
system.mem_ctrls.wrQLenPdf::52                      0                       # What write queue length does an incoming req see
system.mem_ctrls.wrQLenPdf::53                      0                       # What write queue length does an incoming req see
system.mem_ctrls.wrQLenPdf::54                      0                       # What write queue length does an incoming req see
system.mem_ctrls.wrQLenPdf::55                      0                       # What write queue length does an incoming req see
system.mem_ctrls.wrQLenPdf::56                      0                       # What write queue length does an incoming req see
system.mem_ctrls.wrQLenPdf::57                      0                       # What write queue length does an incoming req see
system.mem_ctrls.wrQLenPdf::58                      0                       # What write queue length does an incoming req see
system.mem_ctrls.wrQLenPdf::59                      0                       # What write queue length does an incoming req see
system.mem_ctrls.wrQLenPdf::60                      0                       # What write queue length does an incoming req see
system.mem_ctrls.wrQLenPdf::61                      0                       # What write queue length does an incoming req see
system.mem_ctrls.wrQLenPdf::62                      0                       # What write queue length does an incoming req see
system.mem_ctrls.wrQLenPdf::63                      0                       # What write queue length does an incoming req see
system.mem_ctrls.bytesPerActivate::samples         1661                       # Bytes accessed per row activation
system.mem_ctrls.bytesPerActivate::mean     88.467188                       # Bytes accessed per row activation
system.mem_ctrls.bytesPerActivate::gmean    70.968400                       # Bytes accessed per row activation
system.mem_ctrls.bytesPerActivate::stdev   128.847695                       # Bytes accessed per row activation
system.mem_ctrls.bytesPerActivate::0-127         1559     93.86%     93.86% # Bytes accessed per row activation
system.mem_ctrls.bytesPerActivate::128-255           39      2.35%     96.21% # Bytes accessed per row activation
system.mem_ctrls.bytesPerActivate::256-383           11      0.66%     96.87% # Bytes accessed per row activation
system.mem_ctrls.bytesPerActivate::384-511           20      1.20%     98.07% # Bytes accessed per row activation
system.mem_ctrls.bytesPerActivate::512-639            3      0.18%     98.25% # Bytes accessed per row activation
system.mem_ctrls.bytesPerActivate::640-767            3      0.18%     98.43% # Bytes accessed per row activation
system.mem_ctrls.bytesPerActivate::768-895            1      0.06%     98.49% # Bytes accessed per row activation
system.mem_ctrls.bytesPerActivate::896-1023            1      0.06%     98.56% # Bytes accessed per row activation
system.mem_ctrls.bytesPerActivate::1024-1151           24      1.44%    100.00% # Bytes accessed per row activation
system.mem_ctrls.bytesPerActivate::total         1661                       # Bytes accessed per row activation
system.mem_ctrls.totQLat                    103370450                       # Total ticks spent queuing
system.mem_ctrls.totMemAccLat               146420450                       # Total ticks spent from burst creation until serviced by the DRAM
system.mem_ctrls.totBusLat                   11480000                       # Total ticks spent in databus transfers
system.mem_ctrls.avgQLat                     45021.97                       # Average queueing delay per DRAM burst
system.mem_ctrls.avgBusLat                    5000.00                       # Average bus latency per DRAM burst
system.mem_ctrls.avgMemAccLat                63771.97                       # Average memory access latency per DRAM burst
system.mem_ctrls.avgRdBW                        44.58                       # Average DRAM read bandwidth in MiByte/s
system.mem_ctrls.avgWrBW                         0.00                       # Average achieved write bandwidth in MiByte/s
system.mem_ctrls.avgRdBWSys                     44.58                       # Average system read bandwidth in MiByte/s
system.mem_ctrls.avgWrBWSys                      0.00                       # Average system write bandwidth in MiByte/s
system.mem_ctrls.peakBW                      12800.00                       # Theoretical peak bandwidth in MiByte/s
system.mem_ctrls.busUtil                         0.35                       # Data bus utilization in percentage
system.mem_ctrls.busUtilRead                     0.35                       # Data bus utilization in percentage for reads
system.mem_ctrls.busUtilWrite                    0.00                       # Data bus utilization in percentage for writes
system.mem_ctrls.avgRdQLen                       3.07                       # Average read queue length when enqueuing
system.mem_ctrls.avgWrQLen                       0.00                       # Average write queue length when enqueuing
system.mem_ctrls.readRowHits                      635                       # Number of row buffer hits during reads
system.mem_ctrls.writeRowHits                       0                       # Number of row buffer hits during writes
system.mem_ctrls.readRowHitRate                 27.66                       # Row buffer hit rate for reads
system.mem_ctrls.writeRowHitRate                  nan                       # Row buffer hit rate for writes
system.mem_ctrls.avgGap                     649509.26                       # Average gap between requests
system.mem_ctrls.pageHitRate                    27.66                       # Row buffer hit rate, read and write combined
system.mem_ctrls_0.actEnergy                 10210200                       # Energy for activate commands per rank (pJ)
system.mem_ctrls_0.preEnergy                  5426850                       # Energy for precharge commands per rank (pJ)
system.mem_ctrls_0.readEnergy                13637400                       # Energy for read commands per rank (pJ)
system.mem_ctrls_0.writeEnergy                      0                       # Energy for write commands per rank (pJ)
system.mem_ctrls_0.refreshEnergy         33190560.000000                       # Energy for refresh commands per rank (pJ)
system.mem_ctrls_0.actBackEnergy             32678100                       # Energy for active background per rank (pJ)
system.mem_ctrls_0.preBackEnergy              3255840                       # Energy for precharge background per rank (pJ)
system.mem_ctrls_0.actPowerDownEnergy        64328490                       # Energy for active power-down per rank (pJ)
system.mem_ctrls_0.prePowerDownEnergy        40419360                       # Energy for precharge power-down per rank (pJ)
system.mem_ctrls_0.selfRefreshEnergy        719899620                       # Energy for self refresh per rank (pJ)
system.mem_ctrls_0.totalEnergy              923046420                       # Total energy per rank (pJ)
system.mem_ctrls_0.averagePower            280.038597                       # Core power per rank (mW)
system.mem_ctrls_0.totalIdleTime           1427283504                       # Total Idle time Per DRAM Rank
system.mem_ctrls_0.memoryStateTime::IDLE      3625500                       # Time in different power states
system.mem_ctrls_0.memoryStateTime::REF      14124000                       # Time in different power states
system.mem_ctrls_0.memoryStateTime::SREF   2969670058                       # Time in different power states
system.mem_ctrls_0.memoryStateTime::PRE_PDN    105260214                       # Time in different power states
system.mem_ctrls_0.memoryStateTime::ACT      62393855                       # Time in different power states
system.mem_ctrls_0.memoryStateTime::ACT_PDN    141066681                       # Time in different power states
system.mem_ctrls_1.actEnergy                  1649340                       # Energy for activate commands per rank (pJ)
system.mem_ctrls_1.preEnergy                   876645                       # Energy for precharge commands per rank (pJ)
system.mem_ctrls_1.readEnergy                 2756040                       # Energy for read commands per rank (pJ)
system.mem_ctrls_1.writeEnergy                      0                       # Energy for write commands per rank (pJ)
system.mem_ctrls_1.refreshEnergy         29502720.000000                       # Energy for refresh commands per rank (pJ)
system.mem_ctrls_1.actBackEnergy             11631420                       # Energy for active background per rank (pJ)
system.mem_ctrls_1.preBackEnergy              2506560                       # Energy for precharge background per rank (pJ)
system.mem_ctrls_1.actPowerDownEnergy        58074450                       # Energy for active power-down per rank (pJ)
system.mem_ctrls_1.prePowerDownEnergy        43434240                       # Energy for precharge power-down per rank (pJ)
system.mem_ctrls_1.selfRefreshEnergy        733404660                       # Energy for self refresh per rank (pJ)
system.mem_ctrls_1.totalEnergy              883836075                       # Total energy per rank (pJ)
system.mem_ctrls_1.averagePower            268.142759                       # Core power per rank (mW)
system.mem_ctrls_1.totalIdleTime           1475399737                       # Total Idle time Per DRAM Rank
system.mem_ctrls_1.memoryStateTime::IDLE      3893763                       # Time in different power states
system.mem_ctrls_1.memoryStateTime::REF      12570000                       # Time in different power states
system.mem_ctrls_1.memoryStateTime::SREF   3023637808                       # Time in different power states
system.mem_ctrls_1.memoryStateTime::PRE_PDN    113107492                       # Time in different power states
system.mem_ctrls_1.memoryStateTime::ACT      15579186                       # Time in different power states
system.mem_ctrls_1.memoryStateTime::ACT_PDN    127352059                       # Time in different power states
system.pwrStateResidencyTicks::UNDEFINED  89791215808                       # Cumulative time (in ticks) in various power states
system.cpu_voltage_domain.voltage                   1                       # Voltage in Volts
system.cpu_clk_domain.clock                       833                       # Clock period in ticks
system.cpu0.dtb.walker.pwrStateResidencyTicks::UNDEFINED  89791215808                       # Cumulative time (in ticks) in various power states
system.cpu0.apic_clk_domain.clock               13328                       # Clock period in ticks
system.cpu0.interrupts.pwrStateResidencyTicks::UNDEFINED  89791215808                       # Cumulative time (in ticks) in various power states
system.cpu0.itb.walker.pwrStateResidencyTicks::UNDEFINED  89791215808                       # Cumulative time (in ticks) in various power states
system.cpu0.workload.num_syscalls                   0                       # Number of system calls
system.cpu0.pwrStateResidencyTicks::ON     3296150308                       # Cumulative time (in ticks) in various power states
system.cpu0.numCycles                              11                       # number of cpu cycles simulated
system.cpu0.numWorkItemsStarted                     0                       # number of work items this cpu started
system.cpu0.numWorkItemsCompleted                   0                       # number of work items this cpu completed
system.cpu0.committedInsts                          7                       # Number of instructions committed
system.cpu0.committedOps                            9                       # Number of ops (including micro ops) committed
system.cpu0.num_int_alu_accesses                    9                       # Number of integer alu accesses
system.cpu0.num_fp_alu_accesses                     0                       # Number of float alu accesses
system.cpu0.num_func_calls                          0                       # number of times a function call or return occured
system.cpu0.num_conditional_control_insts            1                       # number of instructions that are conditional controls
system.cpu0.num_int_insts                           9                       # number of integer instructions
system.cpu0.num_fp_insts                            0                       # number of float instructions
system.cpu0.num_int_register_reads                 20                       # number of times the integer registers were read
system.cpu0.num_int_register_writes                 7                       # number of times the integer registers were written
system.cpu0.num_fp_register_reads                   0                       # number of times the floating registers were read
system.cpu0.num_fp_register_writes                  0                       # number of times the floating registers were written
system.cpu0.num_cc_register_reads                   7                       # number of times the CC registers were read
system.cpu0.num_cc_register_writes                  6                       # number of times the CC registers were written
system.cpu0.num_mem_refs                            2                       # number of memory refs
system.cpu0.num_load_insts                          1                       # Number of load instructions
system.cpu0.num_store_insts                         1                       # Number of store instructions
system.cpu0.num_idle_cycles                         0                       # Number of idle cycles
system.cpu0.num_busy_cycles                        11                       # Number of busy cycles
system.cpu0.not_idle_fraction                       1                       # Percentage of non-idle cycles
system.cpu0.idle_fraction                           0                       # Percentage of idle cycles
system.cpu0.Branches                                1                       # Number of branches fetched
system.cpu0.op_class::No_OpClass                    0      0.00%      0.00% # Class of executed instruction
system.cpu0.op_class::IntAlu                        7     77.78%     77.78% # Class of executed instruction
system.cpu0.op_class::IntMult                       0      0.00%     77.78% # Class of executed instruction
system.cpu0.op_class::IntDiv                        0      0.00%     77.78% # Class of executed instruction
system.cpu0.op_class::FloatAdd                      0      0.00%     77.78% # Class of executed instruction
system.cpu0.op_class::FloatCmp                      0      0.00%     77.78% # Class of executed instruction
system.cpu0.op_class::FloatCvt                      0      0.00%     77.78% # Class of executed instruction
system.cpu0.op_class::FloatMult                     0      0.00%     77.78% # Class of executed instruction
system.cpu0.op_class::FloatMultAcc                  0      0.00%     77.78% # Class of executed instruction
system.cpu0.op_class::FloatDiv                      0      0.00%     77.78% # Class of executed instruction
system.cpu0.op_class::FloatMisc                     0      0.00%     77.78% # Class of executed instruction
system.cpu0.op_class::FloatSqrt                     0      0.00%     77.78% # Class of executed instruction
system.cpu0.op_class::SimdAdd                       0      0.00%     77.78% # Class of executed instruction
system.cpu0.op_class::SimdAddAcc                    0      0.00%     77.78% # Class of executed instruction
system.cpu0.op_class::SimdAlu                       0      0.00%     77.78% # Class of executed instruction
system.cpu0.op_class::SimdCmp                       0      0.00%     77.78% # Class of executed instruction
system.cpu0.op_class::SimdCvt                       0      0.00%     77.78% # Class of executed instruction
system.cpu0.op_class::SimdMisc                      0      0.00%     77.78% # Class of executed instruction
system.cpu0.op_class::SimdMult                      0      0.00%     77.78% # Class of executed instruction
system.cpu0.op_class::SimdMultAcc                   0      0.00%     77.78% # Class of executed instruction
system.cpu0.op_class::SimdShift                     0      0.00%     77.78% # Class of executed instruction
system.cpu0.op_class::SimdShiftAcc                  0      0.00%     77.78% # Class of executed instruction
system.cpu0.op_class::SimdSqrt                      0      0.00%     77.78% # Class of executed instruction
system.cpu0.op_class::SimdFloatAdd                  0      0.00%     77.78% # Class of executed instruction
system.cpu0.op_class::SimdFloatAlu                  0      0.00%     77.78% # Class of executed instruction
system.cpu0.op_class::SimdFloatCmp                  0      0.00%     77.78% # Class of executed instruction
system.cpu0.op_class::SimdFloatCvt                  0      0.00%     77.78% # Class of executed instruction
system.cpu0.op_class::SimdFloatDiv                  0      0.00%     77.78% # Class of executed instruction
system.cpu0.op_class::SimdFloatMisc                 0      0.00%     77.78% # Class of executed instruction
system.cpu0.op_class::SimdFloatMult                 0      0.00%     77.78% # Class of executed instruction
system.cpu0.op_class::SimdFloatMultAcc              0      0.00%     77.78% # Class of executed instruction
system.cpu0.op_class::SimdFloatSqrt                 0      0.00%     77.78% # Class of executed instruction
system.cpu0.op_class::MemRead                       1     11.11%     88.89% # Class of executed instruction
system.cpu0.op_class::MemWrite                      1     11.11%    100.00% # Class of executed instruction
system.cpu0.op_class::FloatMemRead                  0      0.00%    100.00% # Class of executed instruction
system.cpu0.op_class::FloatMemWrite                 0      0.00%    100.00% # Class of executed instruction
system.cpu0.op_class::IprAccess                     0      0.00%    100.00% # Class of executed instruction
system.cpu0.op_class::InstPrefetch                  0      0.00%    100.00% # Class of executed instruction
system.cpu0.op_class::total                         9                       # Class of executed instruction
system.cpu0.dcache.tags.pwrStateResidencyTicks::UNDEFINED  89791215808                       # Cumulative time (in ticks) in various power states
system.cpu0.dcache.tags.replacements            31377                       # number of replacements
system.cpu0.dcache.tags.tagsinuse          127.488107                       # Cycle average of tags in use
system.cpu0.dcache.tags.total_refs             154962                       # Total number of references to valid blocks.
system.cpu0.dcache.tags.sampled_refs            31377                       # Sample count of references to valid blocks.
system.cpu0.dcache.tags.avg_refs             4.938713                       # Average number of references to valid blocks.
system.cpu0.dcache.tags.warmup_cycle      86521145193                       # Cycle when the warmup percentage was hit.
system.cpu0.dcache.tags.occ_blocks::cpu0.data     0.007970                       # Average occupied blocks per requestor
system.cpu0.dcache.tags.occ_blocks::switch_cpus0.data   127.480137                       # Average occupied blocks per requestor
system.cpu0.dcache.tags.occ_percent::cpu0.data     0.000062                       # Average percentage of cache occupancy
system.cpu0.dcache.tags.occ_percent::switch_cpus0.data     0.995939                       # Average percentage of cache occupancy
system.cpu0.dcache.tags.occ_percent::total     0.996001                       # Average percentage of cache occupancy
system.cpu0.dcache.tags.occ_task_id_blocks::1024          128                       # Occupied blocks per task id
system.cpu0.dcache.tags.age_task_id_blocks_1024::0           81                       # Occupied blocks per task id
system.cpu0.dcache.tags.age_task_id_blocks_1024::1           47                       # Occupied blocks per task id
system.cpu0.dcache.tags.occ_task_id_percent::1024            1                       # Percentage of cache occupancy per task id
system.cpu0.dcache.tags.tag_accesses          1527737                       # Number of tag accesses
system.cpu0.dcache.tags.data_accesses         1527737                       # Number of data accesses
system.cpu0.dcache.pwrStateResidencyTicks::UNDEFINED  89791215808                       # Cumulative time (in ticks) in various power states
system.cpu0.dcache.ReadReq_hits::switch_cpus0.data        94143                       # number of ReadReq hits
system.cpu0.dcache.ReadReq_hits::total          94143                       # number of ReadReq hits
system.cpu0.dcache.WriteReq_hits::cpu0.data            1                       # number of WriteReq hits
system.cpu0.dcache.WriteReq_hits::switch_cpus0.data        61247                       # number of WriteReq hits
system.cpu0.dcache.WriteReq_hits::total         61248                       # number of WriteReq hits
system.cpu0.dcache.demand_hits::cpu0.data            1                       # number of demand (read+write) hits
system.cpu0.dcache.demand_hits::switch_cpus0.data       155390                       # number of demand (read+write) hits
system.cpu0.dcache.demand_hits::total          155391                       # number of demand (read+write) hits
system.cpu0.dcache.overall_hits::cpu0.data            1                       # number of overall hits
system.cpu0.dcache.overall_hits::switch_cpus0.data       155390                       # number of overall hits
system.cpu0.dcache.overall_hits::total         155391                       # number of overall hits
system.cpu0.dcache.ReadReq_misses::cpu0.data            1                       # number of ReadReq misses
system.cpu0.dcache.ReadReq_misses::switch_cpus0.data        31281                       # number of ReadReq misses
system.cpu0.dcache.ReadReq_misses::total        31282                       # number of ReadReq misses
system.cpu0.dcache.WriteReq_misses::switch_cpus0.data          356                       # number of WriteReq misses
system.cpu0.dcache.WriteReq_misses::total          356                       # number of WriteReq misses
system.cpu0.dcache.demand_misses::cpu0.data            1                       # number of demand (read+write) misses
system.cpu0.dcache.demand_misses::switch_cpus0.data        31637                       # number of demand (read+write) misses
system.cpu0.dcache.demand_misses::total         31638                       # number of demand (read+write) misses
system.cpu0.dcache.overall_misses::cpu0.data            1                       # number of overall misses
system.cpu0.dcache.overall_misses::switch_cpus0.data        31637                       # number of overall misses
system.cpu0.dcache.overall_misses::total        31638                       # number of overall misses
system.cpu0.dcache.ReadReq_miss_latency::switch_cpus0.data    730761745                       # number of ReadReq miss cycles
system.cpu0.dcache.ReadReq_miss_latency::total    730761745                       # number of ReadReq miss cycles
system.cpu0.dcache.WriteReq_miss_latency::switch_cpus0.data      8422463                       # number of WriteReq miss cycles
system.cpu0.dcache.WriteReq_miss_latency::total      8422463                       # number of WriteReq miss cycles
system.cpu0.dcache.demand_miss_latency::switch_cpus0.data    739184208                       # number of demand (read+write) miss cycles
system.cpu0.dcache.demand_miss_latency::total    739184208                       # number of demand (read+write) miss cycles
system.cpu0.dcache.overall_miss_latency::switch_cpus0.data    739184208                       # number of overall miss cycles
system.cpu0.dcache.overall_miss_latency::total    739184208                       # number of overall miss cycles
system.cpu0.dcache.ReadReq_accesses::cpu0.data            1                       # number of ReadReq accesses(hits+misses)
system.cpu0.dcache.ReadReq_accesses::switch_cpus0.data       125424                       # number of ReadReq accesses(hits+misses)
system.cpu0.dcache.ReadReq_accesses::total       125425                       # number of ReadReq accesses(hits+misses)
system.cpu0.dcache.WriteReq_accesses::cpu0.data            1                       # number of WriteReq accesses(hits+misses)
system.cpu0.dcache.WriteReq_accesses::switch_cpus0.data        61603                       # number of WriteReq accesses(hits+misses)
system.cpu0.dcache.WriteReq_accesses::total        61604                       # number of WriteReq accesses(hits+misses)
system.cpu0.dcache.demand_accesses::cpu0.data            2                       # number of demand (read+write) accesses
system.cpu0.dcache.demand_accesses::switch_cpus0.data       187027                       # number of demand (read+write) accesses
system.cpu0.dcache.demand_accesses::total       187029                       # number of demand (read+write) accesses
system.cpu0.dcache.overall_accesses::cpu0.data            2                       # number of overall (read+write) accesses
system.cpu0.dcache.overall_accesses::switch_cpus0.data       187027                       # number of overall (read+write) accesses
system.cpu0.dcache.overall_accesses::total       187029                       # number of overall (read+write) accesses
system.cpu0.dcache.ReadReq_miss_rate::cpu0.data            1                       # miss rate for ReadReq accesses
system.cpu0.dcache.ReadReq_miss_rate::switch_cpus0.data     0.249402                       # miss rate for ReadReq accesses
system.cpu0.dcache.ReadReq_miss_rate::total     0.249408                       # miss rate for ReadReq accesses
system.cpu0.dcache.WriteReq_miss_rate::switch_cpus0.data     0.005779                       # miss rate for WriteReq accesses
system.cpu0.dcache.WriteReq_miss_rate::total     0.005779                       # miss rate for WriteReq accesses
system.cpu0.dcache.demand_miss_rate::cpu0.data     0.500000                       # miss rate for demand accesses
system.cpu0.dcache.demand_miss_rate::switch_cpus0.data     0.169157                       # miss rate for demand accesses
system.cpu0.dcache.demand_miss_rate::total     0.169161                       # miss rate for demand accesses
system.cpu0.dcache.overall_miss_rate::cpu0.data     0.500000                       # miss rate for overall accesses
system.cpu0.dcache.overall_miss_rate::switch_cpus0.data     0.169157                       # miss rate for overall accesses
system.cpu0.dcache.overall_miss_rate::total     0.169161                       # miss rate for overall accesses
system.cpu0.dcache.ReadReq_avg_miss_latency::switch_cpus0.data 23361.201528                       # average ReadReq miss latency
system.cpu0.dcache.ReadReq_avg_miss_latency::total 23360.454734                       # average ReadReq miss latency
system.cpu0.dcache.WriteReq_avg_miss_latency::switch_cpus0.data 23658.603933                       # average WriteReq miss latency
system.cpu0.dcache.WriteReq_avg_miss_latency::total 23658.603933                       # average WriteReq miss latency
system.cpu0.dcache.demand_avg_miss_latency::switch_cpus0.data 23364.548092                       # average overall miss latency
system.cpu0.dcache.demand_avg_miss_latency::total 23363.809596                       # average overall miss latency
system.cpu0.dcache.overall_avg_miss_latency::switch_cpus0.data 23364.548092                       # average overall miss latency
system.cpu0.dcache.overall_avg_miss_latency::total 23363.809596                       # average overall miss latency
system.cpu0.dcache.blocked_cycles::no_mshrs            0                       # number of cycles access was blocked
system.cpu0.dcache.blocked_cycles::no_targets            0                       # number of cycles access was blocked
system.cpu0.dcache.blocked::no_mshrs                0                       # number of cycles access was blocked
system.cpu0.dcache.blocked::no_targets              0                       # number of cycles access was blocked
system.cpu0.dcache.avg_blocked_cycles::no_mshrs          nan                       # average number of cycles each access was blocked
system.cpu0.dcache.avg_blocked_cycles::no_targets          nan                       # average number of cycles each access was blocked
system.cpu0.dcache.writebacks::writebacks        31215                       # number of writebacks
system.cpu0.dcache.writebacks::total            31215                       # number of writebacks
system.cpu0.dcache.WriteReq_mshr_hits::switch_cpus0.data          133                       # number of WriteReq MSHR hits
system.cpu0.dcache.WriteReq_mshr_hits::total          133                       # number of WriteReq MSHR hits
system.cpu0.dcache.demand_mshr_hits::switch_cpus0.data          133                       # number of demand (read+write) MSHR hits
system.cpu0.dcache.demand_mshr_hits::total          133                       # number of demand (read+write) MSHR hits
system.cpu0.dcache.overall_mshr_hits::switch_cpus0.data          133                       # number of overall MSHR hits
system.cpu0.dcache.overall_mshr_hits::total          133                       # number of overall MSHR hits
system.cpu0.dcache.ReadReq_mshr_misses::switch_cpus0.data        31281                       # number of ReadReq MSHR misses
system.cpu0.dcache.ReadReq_mshr_misses::total        31281                       # number of ReadReq MSHR misses
system.cpu0.dcache.WriteReq_mshr_misses::switch_cpus0.data          223                       # number of WriteReq MSHR misses
system.cpu0.dcache.WriteReq_mshr_misses::total          223                       # number of WriteReq MSHR misses
system.cpu0.dcache.demand_mshr_misses::switch_cpus0.data        31504                       # number of demand (read+write) MSHR misses
system.cpu0.dcache.demand_mshr_misses::total        31504                       # number of demand (read+write) MSHR misses
system.cpu0.dcache.overall_mshr_misses::switch_cpus0.data        31504                       # number of overall MSHR misses
system.cpu0.dcache.overall_mshr_misses::total        31504                       # number of overall MSHR misses
system.cpu0.dcache.ReadReq_mshr_miss_latency::switch_cpus0.data    678647599                       # number of ReadReq MSHR miss cycles
system.cpu0.dcache.ReadReq_mshr_miss_latency::total    678647599                       # number of ReadReq MSHR miss cycles
system.cpu0.dcache.WriteReq_mshr_miss_latency::switch_cpus0.data      5300379                       # number of WriteReq MSHR miss cycles
system.cpu0.dcache.WriteReq_mshr_miss_latency::total      5300379                       # number of WriteReq MSHR miss cycles
system.cpu0.dcache.demand_mshr_miss_latency::switch_cpus0.data    683947978                       # number of demand (read+write) MSHR miss cycles
system.cpu0.dcache.demand_mshr_miss_latency::total    683947978                       # number of demand (read+write) MSHR miss cycles
system.cpu0.dcache.overall_mshr_miss_latency::switch_cpus0.data    683947978                       # number of overall MSHR miss cycles
system.cpu0.dcache.overall_mshr_miss_latency::total    683947978                       # number of overall MSHR miss cycles
system.cpu0.dcache.ReadReq_mshr_miss_rate::switch_cpus0.data     0.249402                       # mshr miss rate for ReadReq accesses
system.cpu0.dcache.ReadReq_mshr_miss_rate::total     0.249400                       # mshr miss rate for ReadReq accesses
system.cpu0.dcache.WriteReq_mshr_miss_rate::switch_cpus0.data     0.003620                       # mshr miss rate for WriteReq accesses
system.cpu0.dcache.WriteReq_mshr_miss_rate::total     0.003620                       # mshr miss rate for WriteReq accesses
system.cpu0.dcache.demand_mshr_miss_rate::switch_cpus0.data     0.168446                       # mshr miss rate for demand accesses
system.cpu0.dcache.demand_mshr_miss_rate::total     0.168444                       # mshr miss rate for demand accesses
system.cpu0.dcache.overall_mshr_miss_rate::switch_cpus0.data     0.168446                       # mshr miss rate for overall accesses
system.cpu0.dcache.overall_mshr_miss_rate::total     0.168444                       # mshr miss rate for overall accesses
system.cpu0.dcache.ReadReq_avg_mshr_miss_latency::switch_cpus0.data 21695.201528                       # average ReadReq mshr miss latency
system.cpu0.dcache.ReadReq_avg_mshr_miss_latency::total 21695.201528                       # average ReadReq mshr miss latency
system.cpu0.dcache.WriteReq_avg_mshr_miss_latency::switch_cpus0.data 23768.515695                       # average WriteReq mshr miss latency
system.cpu0.dcache.WriteReq_avg_mshr_miss_latency::total 23768.515695                       # average WriteReq mshr miss latency
system.cpu0.dcache.demand_avg_mshr_miss_latency::switch_cpus0.data 21709.877412                       # average overall mshr miss latency
system.cpu0.dcache.demand_avg_mshr_miss_latency::total 21709.877412                       # average overall mshr miss latency
system.cpu0.dcache.overall_avg_mshr_miss_latency::switch_cpus0.data 21709.877412                       # average overall mshr miss latency
system.cpu0.dcache.overall_avg_mshr_miss_latency::total 21709.877412                       # average overall mshr miss latency
system.cpu0.dtb_walker_cache.tags.pwrStateResidencyTicks::UNDEFINED  89791215808                       # Cumulative time (in ticks) in various power states
system.cpu0.dtb_walker_cache.tags.replacements            0                       # number of replacements
system.cpu0.dtb_walker_cache.tags.tagsinuse            0                       # Cycle average of tags in use
system.cpu0.dtb_walker_cache.tags.total_refs            0                       # Total number of references to valid blocks.
system.cpu0.dtb_walker_cache.tags.sampled_refs            0                       # Sample count of references to valid blocks.
system.cpu0.dtb_walker_cache.tags.avg_refs          nan                       # Average number of references to valid blocks.
system.cpu0.dtb_walker_cache.tags.warmup_cycle            0                       # Cycle when the warmup percentage was hit.
system.cpu0.dtb_walker_cache.tags.tag_accesses            0                       # Number of tag accesses
system.cpu0.dtb_walker_cache.tags.data_accesses            0                       # Number of data accesses
system.cpu0.dtb_walker_cache.pwrStateResidencyTicks::UNDEFINED  89791215808                       # Cumulative time (in ticks) in various power states
system.cpu0.dtb_walker_cache.blocked_cycles::no_mshrs            0                       # number of cycles access was blocked
system.cpu0.dtb_walker_cache.blocked_cycles::no_targets            0                       # number of cycles access was blocked
system.cpu0.dtb_walker_cache.blocked::no_mshrs            0                       # number of cycles access was blocked
system.cpu0.dtb_walker_cache.blocked::no_targets            0                       # number of cycles access was blocked
system.cpu0.dtb_walker_cache.avg_blocked_cycles::no_mshrs          nan                       # average number of cycles each access was blocked
system.cpu0.dtb_walker_cache.avg_blocked_cycles::no_targets          nan                       # average number of cycles each access was blocked
system.cpu0.icache.tags.pwrStateResidencyTicks::UNDEFINED  89791215808                       # Cumulative time (in ticks) in various power states
system.cpu0.icache.tags.replacements                0                       # number of replacements
system.cpu0.icache.tags.tagsinuse           45.191036                       # Cycle average of tags in use
system.cpu0.icache.tags.total_refs                  0                       # Total number of references to valid blocks.
system.cpu0.icache.tags.sampled_refs                0                       # Sample count of references to valid blocks.
system.cpu0.icache.tags.avg_refs                  nan                       # Average number of references to valid blocks.
system.cpu0.icache.tags.warmup_cycle                0                       # Cycle when the warmup percentage was hit.
system.cpu0.icache.tags.occ_blocks::cpu0.inst     1.000000                       # Average occupied blocks per requestor
system.cpu0.icache.tags.occ_blocks::switch_cpus0.inst    44.191036                       # Average occupied blocks per requestor
system.cpu0.icache.tags.occ_percent::cpu0.inst     0.007812                       # Average percentage of cache occupancy
system.cpu0.icache.tags.occ_percent::switch_cpus0.inst     0.345242                       # Average percentage of cache occupancy
system.cpu0.icache.tags.occ_percent::total     0.353055                       # Average percentage of cache occupancy
system.cpu0.icache.tags.occ_task_id_blocks::1024           52                       # Occupied blocks per task id
system.cpu0.icache.tags.age_task_id_blocks_1024::3           52                       # Occupied blocks per task id
system.cpu0.icache.tags.occ_task_id_percent::1024     0.406250                       # Percentage of cache occupancy per task id
system.cpu0.icache.tags.tag_accesses          4094492                       # Number of tag accesses
system.cpu0.icache.tags.data_accesses         4094492                       # Number of data accesses
system.cpu0.icache.pwrStateResidencyTicks::UNDEFINED  89791215808                       # Cumulative time (in ticks) in various power states
system.cpu0.icache.ReadReq_hits::cpu0.inst            8                       # number of ReadReq hits
system.cpu0.icache.ReadReq_hits::switch_cpus0.inst       511745                       # number of ReadReq hits
system.cpu0.icache.ReadReq_hits::total         511753                       # number of ReadReq hits
system.cpu0.icache.demand_hits::cpu0.inst            8                       # number of demand (read+write) hits
system.cpu0.icache.demand_hits::switch_cpus0.inst       511745                       # number of demand (read+write) hits
system.cpu0.icache.demand_hits::total          511753                       # number of demand (read+write) hits
system.cpu0.icache.overall_hits::cpu0.inst            8                       # number of overall hits
system.cpu0.icache.overall_hits::switch_cpus0.inst       511745                       # number of overall hits
system.cpu0.icache.overall_hits::total         511753                       # number of overall hits
system.cpu0.icache.ReadReq_misses::cpu0.inst            1                       # number of ReadReq misses
system.cpu0.icache.ReadReq_misses::switch_cpus0.inst           51                       # number of ReadReq misses
system.cpu0.icache.ReadReq_misses::total           52                       # number of ReadReq misses
system.cpu0.icache.demand_misses::cpu0.inst            1                       # number of demand (read+write) misses
system.cpu0.icache.demand_misses::switch_cpus0.inst           51                       # number of demand (read+write) misses
system.cpu0.icache.demand_misses::total            52                       # number of demand (read+write) misses
system.cpu0.icache.overall_misses::cpu0.inst            1                       # number of overall misses
system.cpu0.icache.overall_misses::switch_cpus0.inst           51                       # number of overall misses
system.cpu0.icache.overall_misses::total           52                       # number of overall misses
system.cpu0.icache.ReadReq_miss_latency::switch_cpus0.inst     11552044                       # number of ReadReq miss cycles
system.cpu0.icache.ReadReq_miss_latency::total     11552044                       # number of ReadReq miss cycles
system.cpu0.icache.demand_miss_latency::switch_cpus0.inst     11552044                       # number of demand (read+write) miss cycles
system.cpu0.icache.demand_miss_latency::total     11552044                       # number of demand (read+write) miss cycles
system.cpu0.icache.overall_miss_latency::switch_cpus0.inst     11552044                       # number of overall miss cycles
system.cpu0.icache.overall_miss_latency::total     11552044                       # number of overall miss cycles
system.cpu0.icache.ReadReq_accesses::cpu0.inst            9                       # number of ReadReq accesses(hits+misses)
system.cpu0.icache.ReadReq_accesses::switch_cpus0.inst       511796                       # number of ReadReq accesses(hits+misses)
system.cpu0.icache.ReadReq_accesses::total       511805                       # number of ReadReq accesses(hits+misses)
system.cpu0.icache.demand_accesses::cpu0.inst            9                       # number of demand (read+write) accesses
system.cpu0.icache.demand_accesses::switch_cpus0.inst       511796                       # number of demand (read+write) accesses
system.cpu0.icache.demand_accesses::total       511805                       # number of demand (read+write) accesses
system.cpu0.icache.overall_accesses::cpu0.inst            9                       # number of overall (read+write) accesses
system.cpu0.icache.overall_accesses::switch_cpus0.inst       511796                       # number of overall (read+write) accesses
system.cpu0.icache.overall_accesses::total       511805                       # number of overall (read+write) accesses
system.cpu0.icache.ReadReq_miss_rate::cpu0.inst     0.111111                       # miss rate for ReadReq accesses
system.cpu0.icache.ReadReq_miss_rate::switch_cpus0.inst     0.000100                       # miss rate for ReadReq accesses
system.cpu0.icache.ReadReq_miss_rate::total     0.000102                       # miss rate for ReadReq accesses
system.cpu0.icache.demand_miss_rate::cpu0.inst     0.111111                       # miss rate for demand accesses
system.cpu0.icache.demand_miss_rate::switch_cpus0.inst     0.000100                       # miss rate for demand accesses
system.cpu0.icache.demand_miss_rate::total     0.000102                       # miss rate for demand accesses
system.cpu0.icache.overall_miss_rate::cpu0.inst     0.111111                       # miss rate for overall accesses
system.cpu0.icache.overall_miss_rate::switch_cpus0.inst     0.000100                       # miss rate for overall accesses
system.cpu0.icache.overall_miss_rate::total     0.000102                       # miss rate for overall accesses
system.cpu0.icache.ReadReq_avg_miss_latency::switch_cpus0.inst 226510.666667                       # average ReadReq miss latency
system.cpu0.icache.ReadReq_avg_miss_latency::total 222154.692308                       # average ReadReq miss latency
system.cpu0.icache.demand_avg_miss_latency::switch_cpus0.inst 226510.666667                       # average overall miss latency
system.cpu0.icache.demand_avg_miss_latency::total 222154.692308                       # average overall miss latency
system.cpu0.icache.overall_avg_miss_latency::switch_cpus0.inst 226510.666667                       # average overall miss latency
system.cpu0.icache.overall_avg_miss_latency::total 222154.692308                       # average overall miss latency
system.cpu0.icache.blocked_cycles::no_mshrs            0                       # number of cycles access was blocked
system.cpu0.icache.blocked_cycles::no_targets            0                       # number of cycles access was blocked
system.cpu0.icache.blocked::no_mshrs                0                       # number of cycles access was blocked
system.cpu0.icache.blocked::no_targets              0                       # number of cycles access was blocked
system.cpu0.icache.avg_blocked_cycles::no_mshrs          nan                       # average number of cycles each access was blocked
system.cpu0.icache.avg_blocked_cycles::no_targets          nan                       # average number of cycles each access was blocked
system.cpu0.icache.ReadReq_mshr_misses::switch_cpus0.inst           51                       # number of ReadReq MSHR misses
system.cpu0.icache.ReadReq_mshr_misses::total           51                       # number of ReadReq MSHR misses
system.cpu0.icache.demand_mshr_misses::switch_cpus0.inst           51                       # number of demand (read+write) MSHR misses
system.cpu0.icache.demand_mshr_misses::total           51                       # number of demand (read+write) MSHR misses
system.cpu0.icache.overall_mshr_misses::switch_cpus0.inst           51                       # number of overall MSHR misses
system.cpu0.icache.overall_mshr_misses::total           51                       # number of overall MSHR misses
system.cpu0.icache.ReadReq_mshr_miss_latency::switch_cpus0.inst     11467078                       # number of ReadReq MSHR miss cycles
system.cpu0.icache.ReadReq_mshr_miss_latency::total     11467078                       # number of ReadReq MSHR miss cycles
system.cpu0.icache.demand_mshr_miss_latency::switch_cpus0.inst     11467078                       # number of demand (read+write) MSHR miss cycles
system.cpu0.icache.demand_mshr_miss_latency::total     11467078                       # number of demand (read+write) MSHR miss cycles
system.cpu0.icache.overall_mshr_miss_latency::switch_cpus0.inst     11467078                       # number of overall MSHR miss cycles
system.cpu0.icache.overall_mshr_miss_latency::total     11467078                       # number of overall MSHR miss cycles
system.cpu0.icache.ReadReq_mshr_miss_rate::switch_cpus0.inst     0.000100                       # mshr miss rate for ReadReq accesses
system.cpu0.icache.ReadReq_mshr_miss_rate::total     0.000100                       # mshr miss rate for ReadReq accesses
system.cpu0.icache.demand_mshr_miss_rate::switch_cpus0.inst     0.000100                       # mshr miss rate for demand accesses
system.cpu0.icache.demand_mshr_miss_rate::total     0.000100                       # mshr miss rate for demand accesses
system.cpu0.icache.overall_mshr_miss_rate::switch_cpus0.inst     0.000100                       # mshr miss rate for overall accesses
system.cpu0.icache.overall_mshr_miss_rate::total     0.000100                       # mshr miss rate for overall accesses
system.cpu0.icache.ReadReq_avg_mshr_miss_latency::switch_cpus0.inst 224844.666667                       # average ReadReq mshr miss latency
system.cpu0.icache.ReadReq_avg_mshr_miss_latency::total 224844.666667                       # average ReadReq mshr miss latency
system.cpu0.icache.demand_avg_mshr_miss_latency::switch_cpus0.inst 224844.666667                       # average overall mshr miss latency
system.cpu0.icache.demand_avg_mshr_miss_latency::total 224844.666667                       # average overall mshr miss latency
system.cpu0.icache.overall_avg_mshr_miss_latency::switch_cpus0.inst 224844.666667                       # average overall mshr miss latency
system.cpu0.icache.overall_avg_mshr_miss_latency::total 224844.666667                       # average overall mshr miss latency
system.cpu0.itb_walker_cache.tags.pwrStateResidencyTicks::UNDEFINED  89791215808                       # Cumulative time (in ticks) in various power states
system.cpu0.itb_walker_cache.tags.replacements            0                       # number of replacements
system.cpu0.itb_walker_cache.tags.tagsinuse            0                       # Cycle average of tags in use
system.cpu0.itb_walker_cache.tags.total_refs            0                       # Total number of references to valid blocks.
system.cpu0.itb_walker_cache.tags.sampled_refs            0                       # Sample count of references to valid blocks.
system.cpu0.itb_walker_cache.tags.avg_refs          nan                       # Average number of references to valid blocks.
system.cpu0.itb_walker_cache.tags.warmup_cycle            0                       # Cycle when the warmup percentage was hit.
system.cpu0.itb_walker_cache.tags.tag_accesses            0                       # Number of tag accesses
system.cpu0.itb_walker_cache.tags.data_accesses            0                       # Number of data accesses
system.cpu0.itb_walker_cache.pwrStateResidencyTicks::UNDEFINED  89791215808                       # Cumulative time (in ticks) in various power states
system.cpu0.itb_walker_cache.blocked_cycles::no_mshrs            0                       # number of cycles access was blocked
system.cpu0.itb_walker_cache.blocked_cycles::no_targets            0                       # number of cycles access was blocked
system.cpu0.itb_walker_cache.blocked::no_mshrs            0                       # number of cycles access was blocked
system.cpu0.itb_walker_cache.blocked::no_targets            0                       # number of cycles access was blocked
system.cpu0.itb_walker_cache.avg_blocked_cycles::no_mshrs          nan                       # average number of cycles each access was blocked
system.cpu0.itb_walker_cache.avg_blocked_cycles::no_targets          nan                       # average number of cycles each access was blocked
system.cpu1.dtb.walker.pwrStateResidencyTicks::UNDEFINED  89791215808                       # Cumulative time (in ticks) in various power states
system.cpu1.apic_clk_domain.clock               13328                       # Clock period in ticks
system.cpu1.interrupts.pwrStateResidencyTicks::UNDEFINED  89791215808                       # Cumulative time (in ticks) in various power states
system.cpu1.itb.walker.pwrStateResidencyTicks::UNDEFINED  89791215808                       # Cumulative time (in ticks) in various power states
system.cpu1.workload.num_syscalls                   0                       # Number of system calls
system.cpu1.pwrStateResidencyTicks::ON     3296150308                       # Cumulative time (in ticks) in various power states
system.cpu1.numCycles                              11                       # number of cpu cycles simulated
[...]
system.switch_cpus2.op_class_0::SimdCmp             0      0.00%     89.00% # Class of committed instruction
system.switch_cpus2.op_class_0::SimdCvt             0      0.00%     89.00% # Class of committed instruction
system.switch_cpus2.op_class_0::SimdMisc            0      0.00%     89.00% # Class of committed instruction
system.switch_cpus2.op_class_0::SimdMult            0      0.00%     89.00% # Class of committed instruction
system.switch_cpus2.op_class_0::SimdMultAcc            0      0.00%     89.00% # Class of committed instruction
system.switch_cpus2.op_class_0::SimdShift            0      0.00%     89.00% # Class of committed instruction
system.switch_cpus2.op_class_0::SimdShiftAcc            0      0.00%     89.00% # Class of committed instruction
system.switch_cpus2.op_class_0::SimdSqrt            0      0.00%     89.00% # Class of committed instruction
system.switch_cpus2.op_class_0::SimdFloatAdd            0      0.00%     89.00% # Class of committed instruction
system.switch_cpus2.op_class_0::SimdFloatAlu            0      0.00%     89.00% # Class of committed instruction
system.switch_cpus2.op_class_0::SimdFloatCmp            0      0.00%     89.00% # Class of committed instruction
system.switch_cpus2.op_class_0::SimdFloatCvt            0      0.00%     89.00% # Class of committed instruction
system.switch_cpus2.op_class_0::SimdFloatDiv            0      0.00%     89.00% # Class of committed instruction
system.switch_cpus2.op_class_0::SimdFloatMisc            0      0.00%     89.00% # Class of committed instruction
system.switch_cpus2.op_class_0::SimdFloatMult            0      0.00%     89.00% # Class of committed instruction
system.switch_cpus2.op_class_0::SimdFloatMultAcc            0      0.00%     89.00% # Class of committed instruction
system.switch_cpus2.op_class_0::SimdFloatSqrt            0      0.00%     89.00% # Class of committed instruction
system.switch_cpus2.op_class_0::MemRead      12265831      7.57%     96.56% # Class of committed instruction
system.switch_cpus2.op_class_0::MemWrite      5570392      3.44%    100.00% # Class of committed instruction
system.switch_cpus2.op_class_0::FloatMemRead            0      0.00%    100.00% # Class of committed instruction
system.switch_cpus2.op_class_0::FloatMemWrite            0      0.00%    100.00% # Class of committed instruction
system.switch_cpus2.op_class_0::IprAccess            0      0.00%    100.00% # Class of committed instruction
system.switch_cpus2.op_class_0::InstPrefetch            0      0.00%    100.00% # Class of committed instruction
system.switch_cpus2.op_class_0::total       162087580                       # Class of committed instruction
system.switch_cpus2.tickCycles              334840983                       # Number of cycles that the object actually ticked
system.switch_cpus2.idleCycles               52479602                       # Total number of cycles that the object has spent stopped
system.switch_cpus3.branchPred.lookups              0                       # Number of BP lookups
system.switch_cpus3.branchPred.condPredicted            0                       # Number of conditional branches predicted
system.switch_cpus3.branchPred.condIncorrect            0                       # Number of conditional branches incorrect
system.switch_cpus3.branchPred.BTBLookups            0                       # Number of BTB lookups
system.switch_cpus3.branchPred.BTBHits              0                       # Number of BTB hits
system.switch_cpus3.branchPred.BTBCorrect            0                       # Number of correct BTB predictions (this stat may not work properly.
system.switch_cpus3.branchPred.BTBHitPct          nan                       # BTB Hit Percentage
system.switch_cpus3.branchPred.usedRAS              0                       # Number of times the RAS was used to get a target.
system.switch_cpus3.branchPred.RASInCorrect            0                       # Number of incorrect RAS predictions.
system.switch_cpus3.branchPred.indirectLookups            0                       # Number of indirect predictor lookups.
system.switch_cpus3.branchPred.indirectHits            0                       # Number of indirect target hits.
system.switch_cpus3.branchPred.indirectMisses            0                       # Number of indirect misses.
system.switch_cpus3.branchPredindirectMispredicted            0                       # Number of mispredicted indirect branches.
system.switch_cpus3.dtb.walker.pwrStateResidencyTicks::UNDEFINED 322638047305                       # Cumulative time (in ticks) in various power states
system.switch_cpus3.itb.walker.pwrStateResidencyTicks::UNDEFINED 322638047305                       # Cumulative time (in ticks) in various power states
system.switch_cpus3.pwrStateResidencyTicks::ON 322638047305                       # Cumulative time (in ticks) in various power states
system.switch_cpus3.numCycles               387320585                       # number of cpu cycles simulated
system.switch_cpus3.numWorkItemsStarted             0                       # number of work items this cpu started
system.switch_cpus3.numWorkItemsCompleted            0                       # number of work items this cpu completed
system.switch_cpus3.committedInsts          100000139                       # Number of instructions committed
system.switch_cpus3.committedOps            162087593                       # Number of ops (including micro ops) committed
system.switch_cpus3.discardedOps             53227551                       # Number of ops (including micro ops) which were discarded before commit
system.switch_cpus3.numFetchSuspends                0                       # Number of times Execute suspended instruction fetching
system.switch_cpus3.cpi                      3.873200                       # CPI: cycles per instruction
system.switch_cpus3.ipc                      0.258184                       # IPC: instructions per cycle
system.switch_cpus3.op_class_0::No_OpClass        96540      0.06%      0.06% # Class of committed instruction
system.switch_cpus3.op_class_0::IntAlu      144153619     88.94%     89.00% # Class of committed instruction
system.switch_cpus3.op_class_0::IntMult            35      0.00%     89.00% # Class of committed instruction
system.switch_cpus3.op_class_0::IntDiv           1176      0.00%     89.00% # Class of committed instruction
system.switch_cpus3.op_class_0::FloatAdd            0      0.00%     89.00% # Class of committed instruction
system.switch_cpus3.op_class_0::FloatCmp            0      0.00%     89.00% # Class of committed instruction
system.switch_cpus3.op_class_0::FloatCvt            0      0.00%     89.00% # Class of committed instruction
system.switch_cpus3.op_class_0::FloatMult            0      0.00%     89.00% # Class of committed instruction
system.switch_cpus3.op_class_0::FloatMultAcc            0      0.00%     89.00% # Class of committed instruction
system.switch_cpus3.op_class_0::FloatDiv            0      0.00%     89.00% # Class of committed instruction
system.switch_cpus3.op_class_0::FloatMisc            0      0.00%     89.00% # Class of committed instruction
system.switch_cpus3.op_class_0::FloatSqrt            0      0.00%     89.00% # Class of committed instruction
system.switch_cpus3.op_class_0::SimdAdd             0      0.00%     89.00% # Class of committed instruction
system.switch_cpus3.op_class_0::SimdAddAcc            0      0.00%     89.00% # Class of committed instruction
system.switch_cpus3.op_class_0::SimdAlu             0      0.00%     89.00% # Class of committed instruction
system.switch_cpus3.op_class_0::SimdCmp             0      0.00%     89.00% # Class of committed instruction
system.switch_cpus3.op_class_0::SimdCvt             0      0.00%     89.00% # Class of committed instruction
system.switch_cpus3.op_class_0::SimdMisc            0      0.00%     89.00% # Class of committed instruction
system.switch_cpus3.op_class_0::SimdMult            0      0.00%     89.00% # Class of committed instruction
system.switch_cpus3.op_class_0::SimdMultAcc            0      0.00%     89.00% # Class of committed instruction
system.switch_cpus3.op_class_0::SimdShift            0      0.00%     89.00% # Class of committed instruction
system.switch_cpus3.op_class_0::SimdShiftAcc            0      0.00%     89.00% # Class of committed instruction
system.switch_cpus3.op_class_0::SimdSqrt            0      0.00%     89.00% # Class of committed instruction
system.switch_cpus3.op_class_0::SimdFloatAdd            0      0.00%     89.00% # Class of committed instruction
system.switch_cpus3.op_class_0::SimdFloatAlu            0      0.00%     89.00% # Class of committed instruction
system.switch_cpus3.op_class_0::SimdFloatCmp            0      0.00%     89.00% # Class of committed instruction
system.switch_cpus3.op_class_0::SimdFloatCvt            0      0.00%     89.00% # Class of committed instruction
system.switch_cpus3.op_class_0::SimdFloatDiv            0      0.00%     89.00% # Class of committed instruction
system.switch_cpus3.op_class_0::SimdFloatMisc            0      0.00%     89.00% # Class of committed instruction
system.switch_cpus3.op_class_0::SimdFloatMult            0      0.00%     89.00% # Class of committed instruction
system.switch_cpus3.op_class_0::SimdFloatMultAcc            0      0.00%     89.00% # Class of committed instruction
system.switch_cpus3.op_class_0::SimdFloatSqrt            0      0.00%     89.00% # Class of committed instruction
system.switch_cpus3.op_class_0::MemRead      12265831      7.57%     96.56% # Class of committed instruction
system.switch_cpus3.op_class_0::MemWrite      5570392      3.44%    100.00% # Class of committed instruction
system.switch_cpus3.op_class_0::FloatMemRead            0      0.00%    100.00% # Class of committed instruction
system.switch_cpus3.op_class_0::FloatMemWrite            0      0.00%    100.00% # Class of committed instruction
system.switch_cpus3.op_class_0::IprAccess            0      0.00%    100.00% # Class of committed instruction
system.switch_cpus3.op_class_0::InstPrefetch            0      0.00%    100.00% # Class of committed instruction
system.switch_cpus3.op_class_0::total       162087593                       # Class of committed instruction
system.switch_cpus3.tickCycles              334840611                       # Number of cycles that the object actually ticked
system.switch_cpus3.idleCycles               52479974                       # Total number of cycles that the object has spent stopped
system.tol2bus.snoop_filter.tot_requests     23498286                       # Total number of requests made to the snoop filter.
system.tol2bus.snoop_filter.hit_single_requests     11749051                       # Number of requests hitting in the snoop filter with a single holder of the requested data.
system.tol2bus.snoop_filter.hit_multi_requests            0                       # Number of requests hitting in the snoop filter with multiple (>1) holders of the requested data.
system.tol2bus.snoop_filter.tot_snoops              0                       # Total number of snoops made to the snoop filter.
system.tol2bus.snoop_filter.hit_single_snoops            0                       # Number of snoops hitting in the snoop filter with a single holder of the requested data.
system.tol2bus.snoop_filter.hit_multi_snoops            0                       # Number of snoops hitting in the snoop filter with multiple (>1) holders of the requested data.
system.tol2bus.pwrStateResidencyTicks::UNDEFINED 322638047305                       # Cumulative time (in ticks) in various power states
system.tol2bus.trans_dist::ReadResp          11670563                       # Transaction distribution
system.tol2bus.trans_dist::WritebackDirty     11704259                       # Transaction distribution
system.tol2bus.trans_dist::CleanEvict           44792                       # Transaction distribution
system.tol2bus.trans_dist::ReadExReq            78672                       # Transaction distribution
system.tol2bus.trans_dist::ReadExResp           78672                       # Transaction distribution
system.tol2bus.trans_dist::ReadCleanReq           184                       # Transaction distribution
system.tol2bus.trans_dist::ReadSharedReq     11670379                       # Transaction distribution
system.tol2bus.pkt_count_system.cpu0.icache.mem_side::system.l2.cpu_side           92                       # Packet count per connected master and slave (bytes)
system.tol2bus.pkt_count_system.cpu0.dcache.mem_side::system.l2.cpu_side      8811792                       # Packet count per connected master and slave (bytes)
system.tol2bus.pkt_count_system.cpu1.icache.mem_side::system.l2.cpu_side           92                       # Packet count per connected master and slave (bytes)
system.tol2bus.pkt_count_system.cpu1.dcache.mem_side::system.l2.cpu_side      8811747                       # Packet count per connected master and slave (bytes)
system.tol2bus.pkt_count_system.cpu2.icache.mem_side::system.l2.cpu_side           92                       # Packet count per connected master and slave (bytes)
system.tol2bus.pkt_count_system.cpu2.dcache.mem_side::system.l2.cpu_side      8811807                       # Packet count per connected master and slave (bytes)
system.tol2bus.pkt_count_system.cpu3.icache.mem_side::system.l2.cpu_side           92                       # Packet count per connected master and slave (bytes)
system.tol2bus.pkt_count_system.cpu3.dcache.mem_side::system.l2.cpu_side      8811807                       # Packet count per connected master and slave (bytes)
system.tol2bus.pkt_count::total              35247521                       # Packet count per connected master and slave (bytes)
system.tol2bus.pkt_size_system.cpu0.icache.mem_side::system.l2.cpu_side         2944                       # Cumulative packet size per connected master and slave (bytes)
system.tol2bus.pkt_size_system.cpu0.dcache.mem_side::system.l2.cpu_side    375253120                       # Cumulative packet size per connected master and slave (bytes)
system.tol2bus.pkt_size_system.cpu1.icache.mem_side::system.l2.cpu_side         2944                       # Cumulative packet size per connected master and slave (bytes)
system.tol2bus.pkt_size_system.cpu1.dcache.mem_side::system.l2.cpu_side    375251200                       # Cumulative packet size per connected master and slave (bytes)
system.tol2bus.pkt_size_system.cpu2.icache.mem_side::system.l2.cpu_side         2944                       # Cumulative packet size per connected master and slave (bytes)
system.tol2bus.pkt_size_system.cpu2.dcache.mem_side::system.l2.cpu_side    375253760                       # Cumulative packet size per connected master and slave (bytes)
system.tol2bus.pkt_size_system.cpu3.icache.mem_side::system.l2.cpu_side         2944                       # Cumulative packet size per connected master and slave (bytes)
system.tol2bus.pkt_size_system.cpu3.dcache.mem_side::system.l2.cpu_side    375253760                       # Cumulative packet size per connected master and slave (bytes)
system.tol2bus.pkt_size::total             1501023616                       # Cumulative packet size per connected master and slave (bytes)
system.tol2bus.snoops                               0                       # Total snoops (count)
system.tol2bus.snoopTraffic                         0                       # Total snoop traffic (bytes)
system.tol2bus.snoop_fanout::samples         11749235                       # Request fanout histogram
system.tol2bus.snoop_fanout::mean                   0                       # Request fanout histogram
system.tol2bus.snoop_fanout::stdev                  0                       # Request fanout histogram
system.tol2bus.snoop_fanout::underflows             0      0.00%      0.00% # Request fanout histogram
system.tol2bus.snoop_fanout::0               11749235    100.00%    100.00% # Request fanout histogram
system.tol2bus.snoop_fanout::1                      0      0.00%    100.00% # Request fanout histogram
system.tol2bus.snoop_fanout::2                      0      0.00%    100.00% # Request fanout histogram
system.tol2bus.snoop_fanout::3                      0      0.00%    100.00% # Request fanout histogram
system.tol2bus.snoop_fanout::4                      0      0.00%    100.00% # Request fanout histogram
system.tol2bus.snoop_fanout::5                      0      0.00%    100.00% # Request fanout histogram
system.tol2bus.snoop_fanout::6                      0      0.00%    100.00% # Request fanout histogram
system.tol2bus.snoop_fanout::7                      0      0.00%    100.00% # Request fanout histogram
system.tol2bus.snoop_fanout::8                      0      0.00%    100.00% # Request fanout histogram
system.tol2bus.snoop_fanout::9                      0      0.00%    100.00% # Request fanout histogram
system.tol2bus.snoop_fanout::10                     0      0.00%    100.00% # Request fanout histogram
system.tol2bus.snoop_fanout::11                     0      0.00%    100.00% # Request fanout histogram
system.tol2bus.snoop_fanout::12                     0      0.00%    100.00% # Request fanout histogram
system.tol2bus.snoop_fanout::13                     0      0.00%    100.00% # Request fanout histogram
system.tol2bus.snoop_fanout::14                     0      0.00%    100.00% # Request fanout histogram
system.tol2bus.snoop_fanout::15                     0      0.00%    100.00% # Request fanout histogram
system.tol2bus.snoop_fanout::16                     0      0.00%    100.00% # Request fanout histogram
system.tol2bus.snoop_fanout::overflows              0      0.00%    100.00% # Request fanout histogram
system.tol2bus.snoop_fanout::min_value              0                       # Request fanout histogram
system.tol2bus.snoop_fanout::max_value              0                       # Request fanout histogram
system.tol2bus.snoop_fanout::total           11749235                       # Request fanout histogram
system.tol2bus.reqLayer0.occupancy        39073367732                       # Layer occupancy (ticks)
system.tol2bus.reqLayer0.utilization             12.1                       # Layer utilization (%)
system.tol2bus.respLayer0.occupancy            114954                       # Layer occupancy (ticks)
system.tol2bus.respLayer0.utilization             0.0                       # Layer utilization (%)
system.tol2bus.respLayer1.occupancy        7340355013                       # Layer occupancy (ticks)
system.tol2bus.respLayer1.utilization             2.3                       # Layer utilization (%)
system.tol2bus.respLayer4.occupancy            115786                       # Layer occupancy (ticks)
system.tol2bus.respLayer4.utilization             0.0                       # Layer utilization (%)
system.tol2bus.respLayer5.occupancy        7340290074                       # Layer occupancy (ticks)
system.tol2bus.respLayer5.utilization             2.3                       # Layer utilization (%)
system.tol2bus.respLayer8.occupancy            115786                       # Layer occupancy (ticks)
system.tol2bus.respLayer8.utilization             0.0                       # Layer utilization (%)
system.tol2bus.respLayer9.occupancy        7340352529                       # Layer occupancy (ticks)
system.tol2bus.respLayer9.utilization             2.3                       # Layer utilization (%)
system.tol2bus.respLayer12.occupancy           114954                       # Layer occupancy (ticks)
system.tol2bus.respLayer12.utilization            0.0                       # Layer utilization (%)
system.tol2bus.respLayer13.occupancy       7340374166                       # Layer occupancy (ticks)
system.tol2bus.respLayer13.utilization            2.3                       # Layer utilization (%)

---------- End Simulation Statistics   ----------
