
---------- Begin Simulation Statistics ----------
sim_seconds                                  0.000569                       # Number of seconds simulated
sim_ticks                                   569329000                       # Number of ticks simulated
final_tick                               111173942000                       # Number of ticks from beginning of simulation (restored from checkpoints and never reset)
sim_freq                                 1000000000000                       # Frequency of simulated ticks
host_inst_rate                                  93078                       # Simulator instruction rate (inst/s)
host_op_rate                                   189256                       # Simulator op (including micro ops) rate (op/s)
host_tick_rate                               52991255                       # Simulator tick rate (ticks/s)
host_mem_usage                                1325808                       # Number of bytes of host memory used
host_seconds                                    10.74                       # Real time elapsed on the host
sim_insts                                     1000011                       # Number of instructions simulated
sim_ops                                       2033331                       # Number of ops (including micro ops) simulated
system.voltage_domain.voltage                       1                       # Voltage in Volts
system.clk_domain.clock                          1000                       # Clock period in ticks
system.mem_ctrls.pwrStateResidencyTicks::UNDEFINED 111173942000                       # Cumulative time (in ticks) in various power states
system.mem_ctrls.bytes_read::cpu.inst             128                       # Number of bytes read from this memory
system.mem_ctrls.bytes_read::cpu.data             192                       # Number of bytes read from this memory
system.mem_ctrls.bytes_read::switch_cpus.inst        39552                       # Number of bytes read from this memory
system.mem_ctrls.bytes_read::switch_cpus.data       133312                       # Number of bytes read from this memory
system.mem_ctrls.bytes_read::total             173184                       # Number of bytes read from this memory
system.mem_ctrls.bytes_inst_read::cpu.inst          128                       # Number of instructions bytes read from this memory
system.mem_ctrls.bytes_inst_read::switch_cpus.inst        39552                       # Number of instructions bytes read from this memory
system.mem_ctrls.bytes_inst_read::total         39680                       # Number of instructions bytes read from this memory
system.mem_ctrls.num_reads::cpu.inst                2                       # Number of read requests responded to by this memory
system.mem_ctrls.num_reads::cpu.data                3                       # Number of read requests responded to by this memory
system.mem_ctrls.num_reads::switch_cpus.inst          618                       # Number of read requests responded to by this memory
system.mem_ctrls.num_reads::switch_cpus.data         2083                       # Number of read requests responded to by this memory
system.mem_ctrls.num_reads::total                2706                       # Number of read requests responded to by this memory
system.mem_ctrls.bw_read::cpu.inst             224826                       # Total read bandwidth from this memory (bytes/s)
system.mem_ctrls.bw_read::cpu.data             337239                       # Total read bandwidth from this memory (bytes/s)
system.mem_ctrls.bw_read::switch_cpus.inst     69471255                       # Total read bandwidth from this memory (bytes/s)
system.mem_ctrls.bw_read::switch_cpus.data    234156349                       # Total read bandwidth from this memory (bytes/s)
system.mem_ctrls.bw_read::total             304189669                       # Total read bandwidth from this memory (bytes/s)
system.mem_ctrls.bw_inst_read::cpu.inst        224826                       # Instruction read bandwidth from this memory (bytes/s)
system.mem_ctrls.bw_inst_read::switch_cpus.inst     69471255                       # Instruction read bandwidth from this memory (bytes/s)
system.mem_ctrls.bw_inst_read::total         69696081                       # Instruction read bandwidth from this memory (bytes/s)
system.mem_ctrls.bw_total::cpu.inst            224826                       # Total bandwidth to/from this memory (bytes/s)
system.mem_ctrls.bw_total::cpu.data            337239                       # Total bandwidth to/from this memory (bytes/s)
system.mem_ctrls.bw_total::switch_cpus.inst     69471255                       # Total bandwidth to/from this memory (bytes/s)
system.mem_ctrls.bw_total::switch_cpus.data    234156349                       # Total bandwidth to/from this memory (bytes/s)
system.mem_ctrls.bw_total::total            304189669                       # Total bandwidth to/from this memory (bytes/s)
system.mem_ctrls.readReqs                        2701                       # Number of read requests accepted
system.mem_ctrls.writeReqs                          0                       # Number of write requests accepted
system.mem_ctrls.readBursts                      2701                       # Number of DRAM read bursts, including those serviced by the write queue
system.mem_ctrls.writeBursts                        0                       # Number of DRAM write bursts, including those merged in the write queue
system.mem_ctrls.bytesReadDRAM                 172864                       # Total number of bytes read from DRAM
system.mem_ctrls.bytesReadWrQ                       0                       # Total number of bytes read from write queue
system.mem_ctrls.bytesWritten                       0                       # Total number of bytes written to DRAM
system.mem_ctrls.bytesReadSys                  172864                       # Total read bytes from the system interface side
system.mem_ctrls.bytesWrittenSys                    0                       # Total written bytes from the system interface side
system.mem_ctrls.servicedByWrQ                      0                       # Number of DRAM read bursts serviced by the write queue
system.mem_ctrls.mergedWrBursts                     0                       # Number of DRAM write bursts merged with an existing one
system.mem_ctrls.neitherReadNorWriteReqs            0                       # Number of requests that are neither read nor write
system.mem_ctrls.perBankRdBursts::0               106                       # Per bank write bursts
system.mem_ctrls.perBankRdBursts::1               148                       # Per bank write bursts
system.mem_ctrls.perBankRdBursts::2               156                       # Per bank write bursts
system.mem_ctrls.perBankRdBursts::3               125                       # Per bank write bursts
system.mem_ctrls.perBankRdBursts::4               181                       # Per bank write bursts
system.mem_ctrls.perBankRdBursts::5                87                       # Per bank write bursts
system.mem_ctrls.perBankRdBursts::6               346                       # Per bank write bursts
system.mem_ctrls.perBankRdBursts::7               379                       # Per bank write bursts
system.mem_ctrls.perBankRdBursts::8               252                       # Per bank write bursts
system.mem_ctrls.perBankRdBursts::9               165                       # Per bank write bursts
system.mem_ctrls.perBankRdBursts::10              105                       # Per bank write bursts
system.mem_ctrls.perBankRdBursts::11              295                       # Per bank write bursts
system.mem_ctrls.perBankRdBursts::12              182                       # Per bank write bursts
system.mem_ctrls.perBankRdBursts::13               62                       # Per bank write bursts
system.mem_ctrls.perBankRdBursts::14               60                       # Per bank write bursts
system.mem_ctrls.perBankRdBursts::15               52                       # Per bank write bursts
system.mem_ctrls.perBankWrBursts::0                 0                       # Per bank write bursts
system.mem_ctrls.perBankWrBursts::1                 0                       # Per bank write bursts
system.mem_ctrls.perBankWrBursts::2                 0                       # Per bank write bursts
system.mem_ctrls.perBankWrBursts::3                 0                       # Per bank write bursts
system.mem_ctrls.perBankWrBursts::4                 0                       # Per bank write bursts
system.mem_ctrls.perBankWrBursts::5                 0                       # Per bank write bursts
system.mem_ctrls.perBankWrBursts::6                 0                       # Per bank write bursts
system.mem_ctrls.perBankWrBursts::7                 0                       # Per bank write bursts
system.mem_ctrls.perBankWrBursts::8                 0                       # Per bank write bursts
system.mem_ctrls.perBankWrBursts::9                 0                       # Per bank write bursts
system.mem_ctrls.perBankWrBursts::10                0                       # Per bank write bursts
system.mem_ctrls.perBankWrBursts::11                0                       # Per bank write bursts
system.mem_ctrls.perBankWrBursts::12                0                       # Per bank write bursts
system.mem_ctrls.perBankWrBursts::13                0                       # Per bank write bursts
system.mem_ctrls.perBankWrBursts::14                0                       # Per bank write bursts
system.mem_ctrls.perBankWrBursts::15                0                       # Per bank write bursts
system.mem_ctrls.numRdRetry                         0                       # Number of times read queue was full causing retry
system.mem_ctrls.numWrRetry                         0                       # Number of times write queue was full causing retry
system.mem_ctrls.totGap                     567876800                       # Total gap between requests
system.mem_ctrls.readPktSize::0                     0                       # Read request sizes (log2)
system.mem_ctrls.readPktSize::1                     0                       # Read request sizes (log2)
system.mem_ctrls.readPktSize::2                     0                       # Read request sizes (log2)
system.mem_ctrls.readPktSize::3                     0                       # Read request sizes (log2)
system.mem_ctrls.readPktSize::4                     0                       # Read request sizes (log2)
system.mem_ctrls.readPktSize::5                     0                       # Read request sizes (log2)
system.mem_ctrls.readPktSize::6                  2701                       # Read request sizes (log2)
system.mem_ctrls.writePktSize::0                    0                       # Write request sizes (log2)
system.mem_ctrls.writePktSize::1                    0                       # Write request sizes (log2)
system.mem_ctrls.writePktSize::2                    0                       # Write request sizes (log2)
system.mem_ctrls.writePktSize::3                    0                       # Write request sizes (log2)
system.mem_ctrls.writePktSize::4                    0                       # Write request sizes (log2)
system.mem_ctrls.writePktSize::5                    0                       # Write request sizes (log2)
system.mem_ctrls.writePktSize::6                    0                       # Write request sizes (log2)
system.mem_ctrls.rdQLenPdf::0                    1862                       # What read queue length does an incoming req see
system.mem_ctrls.rdQLenPdf::1                     544                       # What read queue length does an incoming req see
system.mem_ctrls.rdQLenPdf::2                     215                       # What read queue length does an incoming req see
system.mem_ctrls.rdQLenPdf::3                      72                       # What read queue length does an incoming req see
system.mem_ctrls.rdQLenPdf::4                       7                       # What read queue length does an incoming req see
system.mem_ctrls.rdQLenPdf::5                       1                       # What read queue length does an incoming req see
system.mem_ctrls.rdQLenPdf::6                       0                       # What read queue length does an incoming req see
system.mem_ctrls.rdQLenPdf::7                       0                       # What read queue length does an incoming req see
system.mem_ctrls.rdQLenPdf::8                       0                       # What read queue length does an incoming req see
system.mem_ctrls.rdQLenPdf::9                       0                       # What read queue length does an incoming req see
system.mem_ctrls.rdQLenPdf::10                      0                       # What read queue length does an incoming req see
system.mem_ctrls.rdQLenPdf::11                      0                       # What read queue length does an incoming req see
system.mem_ctrls.rdQLenPdf::12                      0                       # What read queue length does an incoming req see
system.mem_ctrls.rdQLenPdf::13                      0                       # What read queue length does an incoming req see
system.mem_ctrls.rdQLenPdf::14                      0                       # What read queue length does an incoming req see
system.mem_ctrls.rdQLenPdf::15                      0                       # What read queue length does an incoming req see
system.mem_ctrls.rdQLenPdf::16                      0                       # What read queue length does an incoming req see
system.mem_ctrls.rdQLenPdf::17                      0                       # What read queue length does an incoming req see
system.mem_ctrls.rdQLenPdf::18                      0                       # What read queue length does an incoming req see
system.mem_ctrls.rdQLenPdf::19                      0                       # What read queue length does an incoming req see
system.mem_ctrls.rdQLenPdf::20                      0                       # What read queue length does an incoming req see
system.mem_ctrls.rdQLenPdf::21                      0                       # What read queue length does an incoming req see
system.mem_ctrls.rdQLenPdf::22                      0                       # What read queue length does an incoming req see
system.mem_ctrls.rdQLenPdf::23                      0                       # What read queue length does an incoming req see
system.mem_ctrls.rdQLenPdf::24                      0                       # What read queue length does an incoming req see
system.mem_ctrls.rdQLenPdf::25                      0                       # What read queue length does an incoming req see
system.mem_ctrls.rdQLenPdf::26                      0                       # What read queue length does an incoming req see
system.mem_ctrls.rdQLenPdf::27                      0                       # What read queue length does an incoming req see
system.mem_ctrls.rdQLenPdf::28                      0                       # What read queue length does an incoming req see
system.mem_ctrls.rdQLenPdf::29                      0                       # What read queue length does an incoming req see
system.mem_ctrls.rdQLenPdf::30                      0                       # What read queue length does an incoming req see
system.mem_ctrls.rdQLenPdf::31                      0                       # What read queue length does an incoming req see
system.mem_ctrls.wrQLenPdf::0                       0                       # What write queue length does an incoming req see
system.mem_ctrls.wrQLenPdf::1                       0                       # What write queue length does an incoming req see
system.mem_ctrls.wrQLenPdf::2                       0                       # What write queue length does an incoming req see
system.mem_ctrls.wrQLenPdf::3                       0                       # What write queue length does an incoming req see
system.mem_ctrls.wrQLenPdf::4                       0                       # What write queue length does an incoming req see
system.mem_ctrls.wrQLenPdf::5                       0                       # What write queue length does an incoming req see
system.mem_ctrls.wrQLenPdf::6                       0                       # What write queue length does an incoming req see
system.mem_ctrls.wrQLenPdf::7                       0                       # What write queue length does an incoming req see
system.mem_ctrls.wrQLenPdf::8                       0                       # What write queue length does an incoming req see
system.mem_ctrls.wrQLenPdf::9                       0                       # What write queue length does an incoming req see
system.mem_ctrls.wrQLenPdf::10                      0                       # What write queue length does an incoming req see
system.mem_ctrls.wrQLenPdf::11                      0                       # What write queue length does an incoming req see
system.mem_ctrls.wrQLenPdf::12                      0                       # What write queue length does an incoming req see
system.mem_ctrls.wrQLenPdf::13                      0                       # What write queue length does an incoming req see
system.mem_ctrls.wrQLenPdf::14                      0                       # What write queue length does an incoming req see
system.mem_ctrls.wrQLenPdf::15                      0                       # What write queue length does an incoming req see
system.mem_ctrls.wrQLenPdf::16                      0                       # What write queue length does an incoming req see
system.mem_ctrls.wrQLenPdf::17                      0                       # What write queue length does an incoming req see
system.mem_ctrls.wrQLenPdf::18                      0                       # What write queue length does an incoming req see
system.mem_ctrls.wrQLenPdf::19                      0                       # What write queue length does an incoming req see
system.mem_ctrls.wrQLenPdf::20                      0                       # What write queue length does an incoming req see
system.mem_ctrls.wrQLenPdf::21                      0                       # What write queue length does an incoming req see
system.mem_ctrls.wrQLenPdf::22                      0                       # What write queue length does an incoming req see
system.mem_ctrls.wrQLenPdf::23                      0                       # What write queue length does an incoming req see
system.mem_ctrls.wrQLenPdf::24                      0                       # What write queue length does an incoming req see
system.mem_ctrls.wrQLenPdf::25                      0                       # What write queue length does an incoming req see
system.mem_ctrls.wrQLenPdf::26                      0                       # What write queue length does an incoming req see
system.mem_ctrls.wrQLenPdf::27                      0                       # What write queue length does an incoming req see
system.mem_ctrls.wrQLenPdf::28                      0                       # What write queue length does an incoming req see
system.mem_ctrls.wrQLenPdf::29                      0                       # What write queue length does an incoming req see
system.mem_ctrls.wrQLenPdf::30                      0                       # What write queue length does an incoming req see
system.mem_ctrls.wrQLenPdf::31                      0                       # What write queue length does an incoming req see
system.mem_ctrls.wrQLenPdf::32                      0                       # What write queue length does an incoming req see
system.mem_ctrls.wrQLenPdf::33                      0                       # What write queue length does an incoming req see
system.mem_ctrls.wrQLenPdf::34                      0                       # What write queue length does an incoming req see
system.mem_ctrls.wrQLenPdf::35                      0                       # What write queue length does an incoming req see
system.mem_ctrls.wrQLenPdf::36                      0                       # What write queue length does an incoming req see
system.mem_ctrls.wrQLenPdf::37                      0                       # What write queue length does an incoming req see
system.mem_ctrls.wrQLenPdf::38                      0                       # What write queue length does an incoming req see
system.mem_ctrls.wrQLenPdf::39                      0                       # What write queue length does an incoming req see
system.mem_ctrls.wrQLenPdf::40                      0                       # What write queue length does an incoming req see
system.mem_ctrls.wrQLenPdf::41                      0                       # What write queue length does an incoming req see
system.mem_ctrls.wrQLenPdf::42                      0                       # What write queue length does an incoming req see
system.mem_ctrls.wrQLenPdf::43                      0                       # What write queue length does an incoming req see
system.mem_ctrls.wrQLenPdf::44                      0                       # What write queue length does an incoming req see
system.mem_ctrls.wrQLenPdf::45                      0                       # What write queue length does an incoming req see
system.mem_ctrls.wrQLenPdf::46                      0                       # What write queue length does an incoming req see
system.mem_ctrls.wrQLenPdf::47                      0                       # What write queue length does an incoming req see
system.mem_ctrls.wrQLenPdf::48                      0                       # What write queue length does an incoming req see
system.mem_ctrls.wrQLenPdf::49                      0                       # What write queue length does an incoming req see
system.mem_ctrls.wrQLenPdf::50                      0                       # What write queue length does an incoming req see
system.mem_ctrls.wrQLenPdf::51                      0                       # What write queue length does an incoming req see
system.mem_ctrls.wrQLenPdf::52                      0                       # What write queue length does an incoming req see
system.mem_ctrls.wrQLenPdf::53                      0                       # What write queue length does an incoming req see
system.mem_ctrls.wrQLenPdf::54                      0                       # What write queue length does an incoming req see
system.mem_ctrls.wrQLenPdf::55                      0                       # What write queue length does an incoming req see
system.mem_ctrls.wrQLenPdf::56                      0                       # What write queue length does an incoming req see
system.mem_ctrls.wrQLenPdf::57                      0                       # What write queue length does an incoming req see
system.mem_ctrls.wrQLenPdf::58                      0                       # What write queue length does an incoming req see
system.mem_ctrls.wrQLenPdf::59                      0                       # What write queue length does an incoming req see
system.mem_ctrls.wrQLenPdf::60                      0                       # What write queue length does an incoming req see
system.mem_ctrls.wrQLenPdf::61                      0                       # What write queue length does an incoming req see
system.mem_ctrls.wrQLenPdf::62                      0                       # What write queue length does an incoming req see
system.mem_ctrls.wrQLenPdf::63                      0                       # What write queue length does an incoming req see
system.mem_ctrls.bytesPerActivate::samples          876                       # Bytes accessed per row activation
system.mem_ctrls.bytesPerActivate::mean    196.383562                       # Bytes accessed per row activation
system.mem_ctrls.bytesPerActivate::gmean   130.921400                       # Bytes accessed per row activation
system.mem_ctrls.bytesPerActivate::stdev   228.460565                       # Bytes accessed per row activation
system.mem_ctrls.bytesPerActivate::0-127          400     45.66%     45.66% # Bytes accessed per row activation
system.mem_ctrls.bytesPerActivate::128-255          273     31.16%     76.83% # Bytes accessed per row activation
system.mem_ctrls.bytesPerActivate::256-383           94     10.73%     87.56% # Bytes accessed per row activation
system.mem_ctrls.bytesPerActivate::384-511           36      4.11%     91.67% # Bytes accessed per row activation
system.mem_ctrls.bytesPerActivate::512-639           14      1.60%     93.26% # Bytes accessed per row activation
system.mem_ctrls.bytesPerActivate::640-767            9      1.03%     94.29% # Bytes accessed per row activation
system.mem_ctrls.bytesPerActivate::768-895            6      0.68%     94.98% # Bytes accessed per row activation
system.mem_ctrls.bytesPerActivate::896-1023            3      0.34%     95.32% # Bytes accessed per row activation
system.mem_ctrls.bytesPerActivate::1024-1151           41      4.68%    100.00% # Bytes accessed per row activation
system.mem_ctrls.bytesPerActivate::total          876                       # Bytes accessed per row activation
system.mem_ctrls.totQLat                     50211600                       # Total ticks spent queuing
system.mem_ctrls.totMemAccLat               100855350                       # Total ticks spent from burst creation until serviced by the DRAM
system.mem_ctrls.totBusLat                   13505000                       # Total ticks spent in databus transfers
system.mem_ctrls.avgQLat                     18590.00                       # Average queueing delay per DRAM burst
system.mem_ctrls.avgBusLat                    5000.00                       # Average bus latency per DRAM burst
system.mem_ctrls.avgMemAccLat                37340.00                       # Average memory access latency per DRAM burst
system.mem_ctrls.avgRdBW                       303.63                       # Average DRAM read bandwidth in MiByte/s
system.mem_ctrls.avgWrBW                         0.00                       # Average achieved write bandwidth in MiByte/s
system.mem_ctrls.avgRdBWSys                    303.63                       # Average system read bandwidth in MiByte/s
system.mem_ctrls.avgWrBWSys                      0.00                       # Average system write bandwidth in MiByte/s
system.mem_ctrls.peakBW                      12800.00                       # Theoretical peak bandwidth in MiByte/s
system.mem_ctrls.busUtil                         2.37                       # Data bus utilization in percentage
system.mem_ctrls.busUtilRead                     2.37                       # Data bus utilization in percentage for reads
system.mem_ctrls.busUtilWrite                    0.00                       # Data bus utilization in percentage for writes
system.mem_ctrls.avgRdQLen                       1.19                       # Average read queue length when enqueuing
system.mem_ctrls.avgWrQLen                       0.00                       # Average write queue length when enqueuing
system.mem_ctrls.readRowHits                     1818                       # Number of row buffer hits during reads
system.mem_ctrls.writeRowHits                       0                       # Number of row buffer hits during writes
system.mem_ctrls.readRowHitRate                 67.31                       # Row buffer hit rate for reads
system.mem_ctrls.writeRowHitRate                  nan                       # Row buffer hit rate for writes
system.mem_ctrls.avgGap                     210246.87                       # Average gap between requests
system.mem_ctrls.pageHitRate                    67.31                       # Row buffer hit rate, read and write combined
system.mem_ctrls_0.actEnergy                  3584280                       # Energy for activate commands per rank (pJ)
system.mem_ctrls_0.preEnergy                  1886115                       # Energy for precharge commands per rank (pJ)
system.mem_ctrls_0.readEnergy                10909920                       # Energy for read commands per rank (pJ)
system.mem_ctrls_0.writeEnergy                      0                       # Energy for write commands per rank (pJ)
system.mem_ctrls_0.refreshEnergy         46712640.000000                       # Energy for refresh commands per rank (pJ)
system.mem_ctrls_0.actBackEnergy             27288750                       # Energy for active background per rank (pJ)
system.mem_ctrls_0.preBackEnergy              1343040                       # Energy for precharge background per rank (pJ)
system.mem_ctrls_0.actPowerDownEnergy       178182570                       # Energy for active power-down per rank (pJ)
system.mem_ctrls_0.prePowerDownEnergy        42722880                       # Energy for precharge power-down per rank (pJ)
system.mem_ctrls_0.selfRefreshEnergy     3219870.000000                       # Energy for self refresh per rank (pJ)
system.mem_ctrls_0.totalEnergy              315946125                       # Total energy per rank (pJ)
system.mem_ctrls_0.averagePower            554.954716                       # Core power per rank (mW)
system.mem_ctrls_0.totalIdleTime            504461000                       # Total Idle time Per DRAM Rank
system.mem_ctrls_0.memoryStateTime::IDLE      1510400                       # Time in different power states
system.mem_ctrls_0.memoryStateTime::REF      19784000                       # Time in different power states
system.mem_ctrls_0.memoryStateTime::SREF      3751700                       # Time in different power states
system.mem_ctrls_0.memoryStateTime::PRE_PDN    111262100                       # Time in different power states
system.mem_ctrls_0.memoryStateTime::ACT      42204550                       # Time in different power states
system.mem_ctrls_0.memoryStateTime::ACT_PDN    390806050                       # Time in different power states
system.mem_ctrls_1.actEnergy                  2720340                       # Energy for activate commands per rank (pJ)
system.mem_ctrls_1.preEnergy                  1438305                       # Energy for precharge commands per rank (pJ)
system.mem_ctrls_1.readEnergy                 8375220                       # Energy for read commands per rank (pJ)
system.mem_ctrls_1.writeEnergy                      0                       # Energy for write commands per rank (pJ)
system.mem_ctrls_1.refreshEnergy         38722320.000000                       # Energy for refresh commands per rank (pJ)
system.mem_ctrls_1.actBackEnergy             21638340                       # Energy for active background per rank (pJ)
system.mem_ctrls_1.preBackEnergy              1138080                       # Energy for precharge background per rank (pJ)
system.mem_ctrls_1.actPowerDownEnergy       165301140                       # Energy for active power-down per rank (pJ)
system.mem_ctrls_1.prePowerDownEnergy        28326720                       # Energy for precharge power-down per rank (pJ)
system.mem_ctrls_1.selfRefreshEnergy         20384040                       # Energy for self refresh per rank (pJ)
system.mem_ctrls_1.totalEnergy              288044505                       # Total energy per rank (pJ)
system.mem_ctrls_1.averagePower            505.945931                       # Core power per rank (mW)
system.mem_ctrls_1.totalIdleTime            517429700                       # Total Idle time Per DRAM Rank
system.mem_ctrls_1.memoryStateTime::IDLE      1139600                       # Time in different power states
system.mem_ctrls_1.memoryStateTime::REF      16386000                       # Time in different power states
system.mem_ctrls_1.memoryStateTime::SREF     82632750                       # Time in different power states
system.mem_ctrls_1.memoryStateTime::PRE_PDN     73775050                       # Time in different power states
system.mem_ctrls_1.memoryStateTime::ACT      32904650                       # Time in different power states
system.mem_ctrls_1.memoryStateTime::ACT_PDN    362480750                       # Time in different power states
system.pwrStateResidencyTicks::UNDEFINED 111173942000                       # Cumulative time (in ticks) in various power states
system.cpu_voltage_domain.voltage                   1                       # Voltage in Volts
system.cpu_clk_domain.clock                       400                       # Clock period in ticks
system.cpu.dtb.walker.pwrStateResidencyTicks::UNDEFINED 111173942000                       # Cumulative time (in ticks) in various power states
system.cpu.apic_clk_domain.clock                 6400                       # Clock period in ticks
system.cpu.interrupts.pwrStateResidencyTicks::UNDEFINED 111173942000                       # Cumulative time (in ticks) in various power states
system.cpu.itb.walker.pwrStateResidencyTicks::UNDEFINED 111173942000                       # Cumulative time (in ticks) in various power states
system.cpu.workload.num_syscalls                    0                       # Number of system calls
system.cpu.pwrStateResidencyTicks::ON       569329000                       # Cumulative time (in ticks) in various power states
system.cpu.numCycles                               25                       # number of cpu cycles simulated
system.cpu.numWorkItemsStarted                      0                       # number of work items this cpu started
system.cpu.numWorkItemsCompleted                    0                       # number of work items this cpu completed
system.cpu.committedInsts                          11                       # Number of instructions committed
system.cpu.committedOps                            22                       # Number of ops (including micro ops) committed
system.cpu.num_int_alu_accesses                    22                       # Number of integer alu accesses
system.cpu.num_fp_alu_accesses                      0                       # Number of float alu accesses
system.cpu.num_func_calls                           1                       # number of times a function call or return occured
system.cpu.num_conditional_control_insts            2                       # number of instructions that are conditional controls
system.cpu.num_int_insts                           22                       # number of integer instructions
system.cpu.num_fp_insts                             0                       # number of float instructions
system.cpu.num_int_register_reads                  39                       # number of times the integer registers were read
system.cpu.num_int_register_writes                 19                       # number of times the integer registers were written
system.cpu.num_fp_register_reads                    0                       # number of times the floating registers were read
system.cpu.num_fp_register_writes                   0                       # number of times the floating registers were written
system.cpu.num_cc_register_reads                   24                       # number of times the CC registers were read
system.cpu.num_cc_register_writes                  12                       # number of times the CC registers were written
system.cpu.num_mem_refs                             3                       # number of memory refs
system.cpu.num_load_insts                           3                       # Number of load instructions
system.cpu.num_store_insts                          0                       # Number of store instructions
system.cpu.num_idle_cycles                          0                       # Number of idle cycles
system.cpu.num_busy_cycles                         25                       # Number of busy cycles
system.cpu.not_idle_fraction                        1                       # Percentage of non-idle cycles
system.cpu.idle_fraction                            0                       # Percentage of idle cycles
system.cpu.Branches                                 3                       # Number of branches fetched
system.cpu.op_class::No_OpClass                     0      0.00%      0.00% # Class of executed instruction
system.cpu.op_class::IntAlu                        19     86.36%     86.36% # Class of executed instruction
system.cpu.op_class::IntMult                        0      0.00%     86.36% # Class of executed instruction
system.cpu.op_class::IntDiv                         0      0.00%     86.36% # Class of executed instruction
system.cpu.op_class::FloatAdd                       0      0.00%     86.36% # Class of executed instruction
system.cpu.op_class::FloatCmp                       0      0.00%     86.36% # Class of executed instruction
system.cpu.op_class::FloatCvt                       0      0.00%     86.36% # Class of executed instruction
system.cpu.op_class::FloatMult                      0      0.00%     86.36% # Class of executed instruction
system.cpu.op_class::FloatMultAcc                   0      0.00%     86.36% # Class of executed instruction
system.cpu.op_class::FloatDiv                       0      0.00%     86.36% # Class of executed instruction
system.cpu.op_class::FloatMisc                      0      0.00%     86.36% # Class of executed instruction
system.cpu.op_class::FloatSqrt                      0      0.00%     86.36% # Class of executed instruction
system.cpu.op_class::SimdAdd                        0      0.00%     86.36% # Class of executed instruction
system.cpu.op_class::SimdAddAcc                     0      0.00%     86.36% # Class of executed instruction
system.cpu.op_class::SimdAlu                        0      0.00%     86.36% # Class of executed instruction
system.cpu.op_class::SimdCmp                        0      0.00%     86.36% # Class of executed instruction
system.cpu.op_class::SimdCvt                        0      0.00%     86.36% # Class of executed instruction
system.cpu.op_class::SimdMisc                       0      0.00%     86.36% # Class of executed instruction
system.cpu.op_class::SimdMult                       0      0.00%     86.36% # Class of executed instruction
system.cpu.op_class::SimdMultAcc                    0      0.00%     86.36% # Class of executed instruction
system.cpu.op_class::SimdShift                      0      0.00%     86.36% # Class of executed instruction
system.cpu.op_class::SimdShiftAcc                   0      0.00%     86.36% # Class of executed instruction
system.cpu.op_class::SimdSqrt                       0      0.00%     86.36% # Class of executed instruction
system.cpu.op_class::SimdFloatAdd                   0      0.00%     86.36% # Class of executed instruction
system.cpu.op_class::SimdFloatAlu                   0      0.00%     86.36% # Class of executed instruction
system.cpu.op_class::SimdFloatCmp                   0      0.00%     86.36% # Class of executed instruction
system.cpu.op_class::SimdFloatCvt                   0      0.00%     86.36% # Class of executed instruction
system.cpu.op_class::SimdFloatDiv                   0      0.00%     86.36% # Class of executed instruction
system.cpu.op_class::SimdFloatMisc                  0      0.00%     86.36% # Class of executed instruction
system.cpu.op_class::SimdFloatMult                  0      0.00%     86.36% # Class of executed instruction
system.cpu.op_class::SimdFloatMultAcc               0      0.00%     86.36% # Class of executed instruction
system.cpu.op_class::SimdFloatSqrt                  0      0.00%     86.36% # Class of executed instruction
system.cpu.op_class::MemRead                        3     13.64%    100.00% # Class of executed instruction
system.cpu.op_class::MemWrite                       0      0.00%    100.00% # Class of executed instruction
system.cpu.op_class::FloatMemRead                   0      0.00%    100.00% # Class of executed instruction
system.cpu.op_class::FloatMemWrite                  0      0.00%    100.00% # Class of executed instruction
system.cpu.op_class::IprAccess                      0      0.00%    100.00% # Class of executed instruction
system.cpu.op_class::InstPrefetch                   0      0.00%    100.00% # Class of executed instruction
system.cpu.op_class::total                         22                       # Class of executed instruction
system.cpu.dcache.tags.pwrStateResidencyTicks::UNDEFINED 111173942000                       # Cumulative time (in ticks) in various power states
system.cpu.dcache.tags.replacements             12452                       # number of replacements
system.cpu.dcache.tags.tagsinuse           489.491796                       # Cycle average of tags in use
system.cpu.dcache.tags.total_refs              228127                       # Total number of references to valid blocks.
system.cpu.dcache.tags.sampled_refs             12452                       # Sample count of references to valid blocks.
system.cpu.dcache.tags.avg_refs             18.320511                       # Average number of references to valid blocks.
system.cpu.dcache.tags.warmup_cycle      110702466400                       # Cycle when the warmup percentage was hit.
system.cpu.dcache.tags.occ_blocks::cpu.data     0.400052                       # Average occupied blocks per requestor
system.cpu.dcache.tags.occ_blocks::switch_cpus.data   489.091744                       # Average occupied blocks per requestor
system.cpu.dcache.tags.occ_percent::cpu.data     0.000781                       # Average percentage of cache occupancy
system.cpu.dcache.tags.occ_percent::switch_cpus.data     0.955257                       # Average percentage of cache occupancy
system.cpu.dcache.tags.occ_percent::total     0.956039                       # Average percentage of cache occupancy
system.cpu.dcache.tags.occ_task_id_blocks::1024          512                       # Occupied blocks per task id
system.cpu.dcache.tags.age_task_id_blocks_1024::0           79                       # Occupied blocks per task id
system.cpu.dcache.tags.age_task_id_blocks_1024::1          203                       # Occupied blocks per task id
system.cpu.dcache.tags.age_task_id_blocks_1024::2          230                       # Occupied blocks per task id
system.cpu.dcache.tags.occ_task_id_percent::1024            1                       # Percentage of cache occupancy per task id
system.cpu.dcache.tags.tag_accesses           3250612                       # Number of tag accesses
system.cpu.dcache.tags.data_accesses          3250612                       # Number of data accesses
system.cpu.dcache.pwrStateResidencyTicks::UNDEFINED 111173942000                       # Cumulative time (in ticks) in various power states
system.cpu.dcache.ReadReq_hits::switch_cpus.data       293458                       # number of ReadReq hits
system.cpu.dcache.ReadReq_hits::total          293458                       # number of ReadReq hits
system.cpu.dcache.WriteReq_hits::switch_cpus.data        79174                       # number of WriteReq hits
system.cpu.dcache.WriteReq_hits::total          79174                       # number of WriteReq hits
system.cpu.dcache.demand_hits::switch_cpus.data       372632                       # number of demand (read+write) hits
system.cpu.dcache.demand_hits::total           372632                       # number of demand (read+write) hits
system.cpu.dcache.overall_hits::switch_cpus.data       372632                       # number of overall hits
system.cpu.dcache.overall_hits::total          372632                       # number of overall hits
system.cpu.dcache.ReadReq_misses::cpu.data            3                       # number of ReadReq misses
system.cpu.dcache.ReadReq_misses::switch_cpus.data        30910                       # number of ReadReq misses
system.cpu.dcache.ReadReq_misses::total         30913                       # number of ReadReq misses
system.cpu.dcache.WriteReq_misses::switch_cpus.data         1161                       # number of WriteReq misses
system.cpu.dcache.WriteReq_misses::total         1161                       # number of WriteReq misses
system.cpu.dcache.demand_misses::cpu.data            3                       # number of demand (read+write) misses
system.cpu.dcache.demand_misses::switch_cpus.data        32071                       # number of demand (read+write) misses
system.cpu.dcache.demand_misses::total          32074                       # number of demand (read+write) misses
system.cpu.dcache.overall_misses::cpu.data            3                       # number of overall misses
system.cpu.dcache.overall_misses::switch_cpus.data        32071                       # number of overall misses
system.cpu.dcache.overall_misses::total         32074                       # number of overall misses
system.cpu.dcache.ReadReq_miss_latency::switch_cpus.data    494876000                       # number of ReadReq miss cycles
system.cpu.dcache.ReadReq_miss_latency::total    494876000                       # number of ReadReq miss cycles
system.cpu.dcache.WriteReq_miss_latency::switch_cpus.data     80234800                       # number of WriteReq miss cycles
system.cpu.dcache.WriteReq_miss_latency::total     80234800                       # number of WriteReq miss cycles
system.cpu.dcache.demand_miss_latency::switch_cpus.data    575110800                       # number of demand (read+write) miss cycles
system.cpu.dcache.demand_miss_latency::total    575110800                       # number of demand (read+write) miss cycles
system.cpu.dcache.overall_miss_latency::switch_cpus.data    575110800                       # number of overall miss cycles
system.cpu.dcache.overall_miss_latency::total    575110800                       # number of overall miss cycles
system.cpu.dcache.ReadReq_accesses::cpu.data            3                       # number of ReadReq accesses(hits+misses)
system.cpu.dcache.ReadReq_accesses::switch_cpus.data       324368                       # number of ReadReq accesses(hits+misses)
system.cpu.dcache.ReadReq_accesses::total       324371                       # number of ReadReq accesses(hits+misses)
system.cpu.dcache.WriteReq_accesses::switch_cpus.data        80335                       # number of WriteReq accesses(hits+misses)
system.cpu.dcache.WriteReq_accesses::total        80335                       # number of WriteReq accesses(hits+misses)
system.cpu.dcache.demand_accesses::cpu.data            3                       # number of demand (read+write) accesses
system.cpu.dcache.demand_accesses::switch_cpus.data       404703                       # number of demand (read+write) accesses
system.cpu.dcache.demand_accesses::total       404706                       # number of demand (read+write) accesses
system.cpu.dcache.overall_accesses::cpu.data            3                       # number of overall (read+write) accesses
system.cpu.dcache.overall_accesses::switch_cpus.data       404703                       # number of overall (read+write) accesses
system.cpu.dcache.overall_accesses::total       404706                       # number of overall (read+write) accesses
system.cpu.dcache.ReadReq_miss_rate::cpu.data            1                       # miss rate for ReadReq accesses
system.cpu.dcache.ReadReq_miss_rate::switch_cpus.data     0.095293                       # miss rate for ReadReq accesses
system.cpu.dcache.ReadReq_miss_rate::total     0.095301                       # miss rate for ReadReq accesses
system.cpu.dcache.WriteReq_miss_rate::switch_cpus.data     0.014452                       # miss rate for WriteReq accesses
system.cpu.dcache.WriteReq_miss_rate::total     0.014452                       # miss rate for WriteReq accesses
system.cpu.dcache.demand_miss_rate::cpu.data            1                       # miss rate for demand accesses
system.cpu.dcache.demand_miss_rate::switch_cpus.data     0.079246                       # miss rate for demand accesses
system.cpu.dcache.demand_miss_rate::total     0.079253                       # miss rate for demand accesses
system.cpu.dcache.overall_miss_rate::cpu.data            1                       # miss rate for overall accesses
system.cpu.dcache.overall_miss_rate::switch_cpus.data     0.079246                       # miss rate for overall accesses
system.cpu.dcache.overall_miss_rate::total     0.079253                       # miss rate for overall accesses
system.cpu.dcache.ReadReq_avg_miss_latency::switch_cpus.data 16010.223229                       # average ReadReq miss latency
system.cpu.dcache.ReadReq_avg_miss_latency::total 16008.669492                       # average ReadReq miss latency
system.cpu.dcache.WriteReq_avg_miss_latency::switch_cpus.data 69108.354866                       # average WriteReq miss latency
system.cpu.dcache.WriteReq_avg_miss_latency::total 69108.354866                       # average WriteReq miss latency
system.cpu.dcache.demand_avg_miss_latency::switch_cpus.data 17932.424932                       # average overall miss latency
system.cpu.dcache.demand_avg_miss_latency::total 17930.747646                       # average overall miss latency
system.cpu.dcache.overall_avg_miss_latency::switch_cpus.data 17932.424932                       # average overall miss latency
system.cpu.dcache.overall_avg_miss_latency::total 17930.747646                       # average overall miss latency
system.cpu.dcache.blocked_cycles::no_mshrs        43022                       # number of cycles access was blocked
system.cpu.dcache.blocked_cycles::no_targets            0                       # number of cycles access was blocked
system.cpu.dcache.blocked::no_mshrs              4395                       # number of cycles access was blocked
system.cpu.dcache.blocked::no_targets               0                       # number of cycles access was blocked
system.cpu.dcache.avg_blocked_cycles::no_mshrs     9.788851                       # average number of cycles each access was blocked
system.cpu.dcache.avg_blocked_cycles::no_targets          nan                       # average number of cycles each access was blocked
system.cpu.dcache.writebacks::writebacks         2289                       # number of writebacks
system.cpu.dcache.writebacks::total              2289                       # number of writebacks
system.cpu.dcache.ReadReq_mshr_hits::switch_cpus.data        19073                       # number of ReadReq MSHR hits
system.cpu.dcache.ReadReq_mshr_hits::total        19073                       # number of ReadReq MSHR hits
system.cpu.dcache.WriteReq_mshr_hits::switch_cpus.data           22                       # number of WriteReq MSHR hits
system.cpu.dcache.WriteReq_mshr_hits::total           22                       # number of WriteReq MSHR hits
system.cpu.dcache.demand_mshr_hits::switch_cpus.data        19095                       # number of demand (read+write) MSHR hits
system.cpu.dcache.demand_mshr_hits::total        19095                       # number of demand (read+write) MSHR hits
system.cpu.dcache.overall_mshr_hits::switch_cpus.data        19095                       # number of overall MSHR hits
system.cpu.dcache.overall_mshr_hits::total        19095                       # number of overall MSHR hits
system.cpu.dcache.ReadReq_mshr_misses::switch_cpus.data        11837                       # number of ReadReq MSHR misses
system.cpu.dcache.ReadReq_mshr_misses::total        11837                       # number of ReadReq MSHR misses
system.cpu.dcache.WriteReq_mshr_misses::switch_cpus.data         1139                       # number of WriteReq MSHR misses
system.cpu.dcache.WriteReq_mshr_misses::total         1139                       # number of WriteReq MSHR misses
system.cpu.dcache.demand_mshr_misses::switch_cpus.data        12976                       # number of demand (read+write) MSHR misses
system.cpu.dcache.demand_mshr_misses::total        12976                       # number of demand (read+write) MSHR misses
system.cpu.dcache.overall_mshr_misses::switch_cpus.data        12976                       # number of overall MSHR misses
system.cpu.dcache.overall_mshr_misses::total        12976                       # number of overall MSHR misses
system.cpu.dcache.ReadReq_mshr_miss_latency::switch_cpus.data    207194000                       # number of ReadReq MSHR miss cycles
system.cpu.dcache.ReadReq_mshr_miss_latency::total    207194000                       # number of ReadReq MSHR miss cycles
system.cpu.dcache.WriteReq_mshr_miss_latency::switch_cpus.data     78898800                       # number of WriteReq MSHR miss cycles
system.cpu.dcache.WriteReq_mshr_miss_latency::total     78898800                       # number of WriteReq MSHR miss cycles
system.cpu.dcache.demand_mshr_miss_latency::switch_cpus.data    286092800                       # number of demand (read+write) MSHR miss cycles
system.cpu.dcache.demand_mshr_miss_latency::total    286092800                       # number of demand (read+write) MSHR miss cycles
system.cpu.dcache.overall_mshr_miss_latency::switch_cpus.data    286092800                       # number of overall MSHR miss cycles
system.cpu.dcache.overall_mshr_miss_latency::total    286092800                       # number of overall MSHR miss cycles
system.cpu.dcache.ReadReq_mshr_miss_rate::switch_cpus.data     0.036493                       # mshr miss rate for ReadReq accesses
system.cpu.dcache.ReadReq_mshr_miss_rate::total     0.036492                       # mshr miss rate for ReadReq accesses
system.cpu.dcache.WriteReq_mshr_miss_rate::switch_cpus.data     0.014178                       # mshr miss rate for WriteReq accesses
system.cpu.dcache.WriteReq_mshr_miss_rate::total     0.014178                       # mshr miss rate for WriteReq accesses
system.cpu.dcache.demand_mshr_miss_rate::switch_cpus.data     0.032063                       # mshr miss rate for demand accesses
system.cpu.dcache.demand_mshr_miss_rate::total     0.032063                       # mshr miss rate for demand accesses
system.cpu.dcache.overall_mshr_miss_rate::switch_cpus.data     0.032063                       # mshr miss rate for overall accesses
system.cpu.dcache.overall_mshr_miss_rate::total     0.032063                       # mshr miss rate for overall accesses
system.cpu.dcache.ReadReq_avg_mshr_miss_latency::switch_cpus.data 17503.928360                       # average ReadReq mshr miss latency
system.cpu.dcache.ReadReq_avg_mshr_miss_latency::total 17503.928360                       # average ReadReq mshr miss latency
system.cpu.dcache.WriteReq_avg_mshr_miss_latency::switch_cpus.data 69270.237050                       # average WriteReq mshr miss latency
system.cpu.dcache.WriteReq_avg_mshr_miss_latency::total 69270.237050                       # average WriteReq mshr miss latency
system.cpu.dcache.demand_avg_mshr_miss_latency::switch_cpus.data 22047.842170                       # average overall mshr miss latency
system.cpu.dcache.demand_avg_mshr_miss_latency::total 22047.842170                       # average overall mshr miss latency
system.cpu.dcache.overall_avg_mshr_miss_latency::switch_cpus.data 22047.842170                       # average overall mshr miss latency
system.cpu.dcache.overall_avg_mshr_miss_latency::total 22047.842170                       # average overall mshr miss latency
system.cpu.dtb_walker_cache.tags.pwrStateResidencyTicks::UNDEFINED 111173942000                       # Cumulative time (in ticks) in various power states
system.cpu.dtb_walker_cache.tags.replacements            0                       # number of replacements
system.cpu.dtb_walker_cache.tags.tagsinuse            0                       # Cycle average of tags in use
system.cpu.dtb_walker_cache.tags.total_refs            0                       # Total number of references to valid blocks.
system.cpu.dtb_walker_cache.tags.sampled_refs            0                       # Sample count of references to valid blocks.
system.cpu.dtb_walker_cache.tags.avg_refs          nan                       # Average number of references to valid blocks.
system.cpu.dtb_walker_cache.tags.warmup_cycle            0                       # Cycle when the warmup percentage was hit.
system.cpu.dtb_walker_cache.tags.tag_accesses            0                       # Number of tag accesses
system.cpu.dtb_walker_cache.tags.data_accesses            0                       # Number of data accesses
system.cpu.dtb_walker_cache.pwrStateResidencyTicks::UNDEFINED 111173942000                       # Cumulative time (in ticks) in various power states
system.cpu.dtb_walker_cache.blocked_cycles::no_mshrs            0                       # number of cycles access was blocked
system.cpu.dtb_walker_cache.blocked_cycles::no_targets            0                       # number of cycles access was blocked
system.cpu.dtb_walker_cache.blocked::no_mshrs            0                       # number of cycles access was blocked
system.cpu.dtb_walker_cache.blocked::no_targets            0                       # number of cycles access was blocked
system.cpu.dtb_walker_cache.avg_blocked_cycles::no_mshrs          nan                       # average number of cycles each access was blocked
system.cpu.dtb_walker_cache.avg_blocked_cycles::no_targets          nan                       # average number of cycles each access was blocked
system.cpu.icache.tags.pwrStateResidencyTicks::UNDEFINED 111173942000                       # Cumulative time (in ticks) in various power states
system.cpu.icache.tags.replacements              2593                       # number of replacements
system.cpu.icache.tags.tagsinuse           422.594727                       # Cycle average of tags in use
system.cpu.icache.tags.total_refs               45568                       # Total number of references to valid blocks.
system.cpu.icache.tags.sampled_refs              2593                       # Sample count of references to valid blocks.
system.cpu.icache.tags.avg_refs             17.573467                       # Average number of references to valid blocks.
system.cpu.icache.tags.warmup_cycle                 0                       # Cycle when the warmup percentage was hit.
system.cpu.icache.tags.occ_blocks::cpu.inst     1.999988                       # Average occupied blocks per requestor
system.cpu.icache.tags.occ_blocks::switch_cpus.inst   420.594739                       # Average occupied blocks per requestor
system.cpu.icache.tags.occ_percent::cpu.inst     0.003906                       # Average percentage of cache occupancy
system.cpu.icache.tags.occ_percent::switch_cpus.inst     0.821474                       # Average percentage of cache occupancy
system.cpu.icache.tags.occ_percent::total     0.825380                       # Average percentage of cache occupancy
system.cpu.icache.tags.occ_task_id_blocks::1024          476                       # Occupied blocks per task id
system.cpu.icache.tags.age_task_id_blocks_1024::0            6                       # Occupied blocks per task id
system.cpu.icache.tags.age_task_id_blocks_1024::1           30                       # Occupied blocks per task id
system.cpu.icache.tags.age_task_id_blocks_1024::2          440                       # Occupied blocks per task id
system.cpu.icache.tags.occ_task_id_percent::1024     0.929688                       # Percentage of cache occupancy per task id
system.cpu.icache.tags.tag_accesses           1851604                       # Number of tag accesses
system.cpu.icache.tags.data_accesses          1851604                       # Number of data accesses
system.cpu.icache.pwrStateResidencyTicks::UNDEFINED 111173942000                       # Cumulative time (in ticks) in various power states
system.cpu.icache.ReadReq_hits::cpu.inst           12                       # number of ReadReq hits
system.cpu.icache.ReadReq_hits::switch_cpus.inst       227712                       # number of ReadReq hits
system.cpu.icache.ReadReq_hits::total          227724                       # number of ReadReq hits
system.cpu.icache.demand_hits::cpu.inst            12                       # number of demand (read+write) hits
system.cpu.icache.demand_hits::switch_cpus.inst       227712                       # number of demand (read+write) hits
system.cpu.icache.demand_hits::total           227724                       # number of demand (read+write) hits
system.cpu.icache.overall_hits::cpu.inst           12                       # number of overall hits
system.cpu.icache.overall_hits::switch_cpus.inst       227712                       # number of overall hits
system.cpu.icache.overall_hits::total          227724                       # number of overall hits
system.cpu.icache.ReadReq_misses::cpu.inst            2                       # number of ReadReq misses
system.cpu.icache.ReadReq_misses::switch_cpus.inst         3339                       # number of ReadReq misses
system.cpu.icache.ReadReq_misses::total          3341                       # number of ReadReq misses
system.cpu.icache.demand_misses::cpu.inst            2                       # number of demand (read+write) misses
system.cpu.icache.demand_misses::switch_cpus.inst         3339                       # number of demand (read+write) misses
system.cpu.icache.demand_misses::total           3341                       # number of demand (read+write) misses
system.cpu.icache.overall_misses::cpu.inst            2                       # number of overall misses
system.cpu.icache.overall_misses::switch_cpus.inst         3339                       # number of overall misses
system.cpu.icache.overall_misses::total          3341                       # number of overall misses
system.cpu.icache.ReadReq_miss_latency::switch_cpus.inst     86082800                       # number of ReadReq miss cycles
system.cpu.icache.ReadReq_miss_latency::total     86082800                       # number of ReadReq miss cycles
system.cpu.icache.demand_miss_latency::switch_cpus.inst     86082800                       # number of demand (read+write) miss cycles
system.cpu.icache.demand_miss_latency::total     86082800                       # number of demand (read+write) miss cycles
system.cpu.icache.overall_miss_latency::switch_cpus.inst     86082800                       # number of overall miss cycles
system.cpu.icache.overall_miss_latency::total     86082800                       # number of overall miss cycles
system.cpu.icache.ReadReq_accesses::cpu.inst           14                       # number of ReadReq accesses(hits+misses)
system.cpu.icache.ReadReq_accesses::switch_cpus.inst       231051                       # number of ReadReq accesses(hits+misses)
system.cpu.icache.ReadReq_accesses::total       231065                       # number of ReadReq accesses(hits+misses)
system.cpu.icache.demand_accesses::cpu.inst           14                       # number of demand (read+write) accesses
system.cpu.icache.demand_accesses::switch_cpus.inst       231051                       # number of demand (read+write) accesses
system.cpu.icache.demand_accesses::total       231065                       # number of demand (read+write) accesses
system.cpu.icache.overall_accesses::cpu.inst           14                       # number of overall (read+write) accesses
system.cpu.icache.overall_accesses::switch_cpus.inst       231051                       # number of overall (read+write) accesses
system.cpu.icache.overall_accesses::total       231065                       # number of overall (read+write) accesses
system.cpu.icache.ReadReq_miss_rate::cpu.inst     0.142857                       # miss rate for ReadReq accesses
system.cpu.icache.ReadReq_miss_rate::switch_cpus.inst     0.014451                       # miss rate for ReadReq accesses
system.cpu.icache.ReadReq_miss_rate::total     0.014459                       # miss rate for ReadReq accesses
system.cpu.icache.demand_miss_rate::cpu.inst     0.142857                       # miss rate for demand accesses
system.cpu.icache.demand_miss_rate::switch_cpus.inst     0.014451                       # miss rate for demand accesses
system.cpu.icache.demand_miss_rate::total     0.014459                       # miss rate for demand accesses
system.cpu.icache.overall_miss_rate::cpu.inst     0.142857                       # miss rate for overall accesses
system.cpu.icache.overall_miss_rate::switch_cpus.inst     0.014451                       # miss rate for overall accesses
system.cpu.icache.overall_miss_rate::total     0.014459                       # miss rate for overall accesses
system.cpu.icache.ReadReq_avg_miss_latency::switch_cpus.inst 25781.012279                       # average ReadReq miss latency
system.cpu.icache.ReadReq_avg_miss_latency::total 25765.579168                       # average ReadReq miss latency
system.cpu.icache.demand_avg_miss_latency::switch_cpus.inst 25781.012279                       # average overall miss latency
system.cpu.icache.demand_avg_miss_latency::total 25765.579168                       # average overall miss latency
system.cpu.icache.overall_avg_miss_latency::switch_cpus.inst 25781.012279                       # average overall miss latency
system.cpu.icache.overall_avg_miss_latency::total 25765.579168                       # average overall miss latency
system.cpu.icache.blocked_cycles::no_mshrs           82                       # number of cycles access was blocked
system.cpu.icache.blocked_cycles::no_targets            0                       # number of cycles access was blocked
system.cpu.icache.blocked::no_mshrs                 1                       # number of cycles access was blocked
system.cpu.icache.blocked::no_targets               0                       # number of cycles access was blocked
system.cpu.icache.avg_blocked_cycles::no_mshrs           82                       # average number of cycles each access was blocked
system.cpu.icache.avg_blocked_cycles::no_targets          nan                       # average number of cycles each access was blocked
system.cpu.icache.writebacks::writebacks         2593                       # number of writebacks
system.cpu.icache.writebacks::total              2593                       # number of writebacks
system.cpu.icache.ReadReq_mshr_hits::switch_cpus.inst          257                       # number of ReadReq MSHR hits
system.cpu.icache.ReadReq_mshr_hits::total          257                       # number of ReadReq MSHR hits
system.cpu.icache.demand_mshr_hits::switch_cpus.inst          257                       # number of demand (read+write) MSHR hits
system.cpu.icache.demand_mshr_hits::total          257                       # number of demand (read+write) MSHR hits
system.cpu.icache.overall_mshr_hits::switch_cpus.inst          257                       # number of overall MSHR hits
system.cpu.icache.overall_mshr_hits::total          257                       # number of overall MSHR hits
system.cpu.icache.ReadReq_mshr_misses::switch_cpus.inst         3082                       # number of ReadReq MSHR misses
system.cpu.icache.ReadReq_mshr_misses::total         3082                       # number of ReadReq MSHR misses
system.cpu.icache.demand_mshr_misses::switch_cpus.inst         3082                       # number of demand (read+write) MSHR misses
system.cpu.icache.demand_mshr_misses::total         3082                       # number of demand (read+write) MSHR misses
system.cpu.icache.overall_mshr_misses::switch_cpus.inst         3082                       # number of overall MSHR misses
system.cpu.icache.overall_mshr_misses::total         3082                       # number of overall MSHR misses
system.cpu.icache.ReadReq_mshr_miss_latency::switch_cpus.inst     76630400                       # number of ReadReq MSHR miss cycles
system.cpu.icache.ReadReq_mshr_miss_latency::total     76630400                       # number of ReadReq MSHR miss cycles
system.cpu.icache.demand_mshr_miss_latency::switch_cpus.inst     76630400                       # number of demand (read+write) MSHR miss cycles
system.cpu.icache.demand_mshr_miss_latency::total     76630400                       # number of demand (read+write) MSHR miss cycles
system.cpu.icache.overall_mshr_miss_latency::switch_cpus.inst     76630400                       # number of overall MSHR miss cycles
system.cpu.icache.overall_mshr_miss_latency::total     76630400                       # number of overall MSHR miss cycles
system.cpu.icache.ReadReq_mshr_miss_rate::switch_cpus.inst     0.013339                       # mshr miss rate for ReadReq accesses
system.cpu.icache.ReadReq_mshr_miss_rate::total     0.013338                       # mshr miss rate for ReadReq accesses
system.cpu.icache.demand_mshr_miss_rate::switch_cpus.inst     0.013339                       # mshr miss rate for demand accesses
system.cpu.icache.demand_mshr_miss_rate::total     0.013338                       # mshr miss rate for demand accesses
system.cpu.icache.overall_mshr_miss_rate::switch_cpus.inst     0.013339                       # mshr miss rate for overall accesses
system.cpu.icache.overall_mshr_miss_rate::total     0.013338                       # mshr miss rate for overall accesses
system.cpu.icache.ReadReq_avg_mshr_miss_latency::switch_cpus.inst 24863.854640                       # average ReadReq mshr miss latency
system.cpu.icache.ReadReq_avg_mshr_miss_latency::total 24863.854640                       # average ReadReq mshr miss latency
system.cpu.icache.demand_avg_mshr_miss_latency::switch_cpus.inst 24863.854640                       # average overall mshr miss latency
system.cpu.icache.demand_avg_mshr_miss_latency::total 24863.854640                       # average overall mshr miss latency
system.cpu.icache.overall_avg_mshr_miss_latency::switch_cpus.inst 24863.854640                       # average overall mshr miss latency
system.cpu.icache.overall_avg_mshr_miss_latency::total 24863.854640                       # average overall mshr miss latency
system.cpu.itb_walker_cache.tags.pwrStateResidencyTicks::UNDEFINED 111173942000                       # Cumulative time (in ticks) in various power states
system.cpu.itb_walker_cache.tags.replacements            0                       # number of replacements
system.cpu.itb_walker_cache.tags.tagsinuse            0                       # Cycle average of tags in use
system.cpu.itb_walker_cache.tags.total_refs            0                       # Total number of references to valid blocks.
system.cpu.itb_walker_cache.tags.sampled_refs            0                       # Sample count of references to valid blocks.
system.cpu.itb_walker_cache.tags.avg_refs          nan                       # Average number of references to valid blocks.
system.cpu.itb_walker_cache.tags.warmup_cycle            0                       # Cycle when the warmup percentage was hit.
system.cpu.itb_walker_cache.tags.tag_accesses            0                       # Number of tag accesses
system.cpu.itb_walker_cache.tags.data_accesses            0                       # Number of data accesses
system.cpu.itb_walker_cache.pwrStateResidencyTicks::UNDEFINED 111173942000                       # Cumulative time (in ticks) in various power states
system.cpu.itb_walker_cache.blocked_cycles::no_mshrs            0                       # number of cycles access was blocked
system.cpu.itb_walker_cache.blocked_cycles::no_targets            0                       # number of cycles access was blocked
system.cpu.itb_walker_cache.blocked::no_mshrs            0                       # number of cycles access was blocked
system.cpu.itb_walker_cache.blocked::no_targets            0                       # number of cycles access was blocked
system.cpu.itb_walker_cache.avg_blocked_cycles::no_mshrs          nan                       # average number of cycles each access was blocked
system.cpu.itb_walker_cache.avg_blocked_cycles::no_targets          nan                       # average number of cycles each access was blocked
system.l2.tags.pwrStateResidencyTicks::UNDEFINED 111173942000                       # Cumulative time (in ticks) in various power states
system.l2.tags.replacements                         0                       # number of replacements
system.l2.tags.tagsinuse                  1823.199670                       # Cycle average of tags in use
system.l2.tags.total_refs                           0                       # Total number of references to valid blocks.
system.l2.tags.sampled_refs                         0                       # Sample count of references to valid blocks.
system.l2.tags.avg_refs                           nan                       # Average number of references to valid blocks.
system.l2.tags.warmup_cycle                         0                       # Cycle when the warmup percentage was hit.
system.l2.tags.occ_blocks::cpu.inst          1.999988                       # Average occupied blocks per requestor
system.l2.tags.occ_blocks::cpu.data          2.999981                       # Average occupied blocks per requestor
system.l2.tags.occ_blocks::switch_cpus.inst   483.611383                       # Average occupied blocks per requestor
system.l2.tags.occ_blocks::switch_cpus.data  1334.588318                       # Average occupied blocks per requestor
system.l2.tags.occ_percent::cpu.inst         0.000122                       # Average percentage of cache occupancy
system.l2.tags.occ_percent::cpu.data         0.000183                       # Average percentage of cache occupancy
system.l2.tags.occ_percent::switch_cpus.inst     0.029517                       # Average percentage of cache occupancy
system.l2.tags.occ_percent::switch_cpus.data     0.081457                       # Average percentage of cache occupancy
system.l2.tags.occ_percent::total            0.111279                       # Average percentage of cache occupancy
system.l2.tags.occ_task_id_blocks::1024          2706                       # Occupied blocks per task id
system.l2.tags.age_task_id_blocks_1024::0           48                       # Occupied blocks per task id
system.l2.tags.age_task_id_blocks_1024::1          270                       # Occupied blocks per task id
system.l2.tags.age_task_id_blocks_1024::2         2388                       # Occupied blocks per task id
system.l2.tags.occ_task_id_percent::1024     0.165161                       # Percentage of cache occupancy per task id
system.l2.tags.tag_accesses                    250210                       # Number of tag accesses
system.l2.tags.data_accesses                   250210                       # Number of data accesses
system.l2.pwrStateResidencyTicks::UNDEFINED 111173942000                       # Cumulative time (in ticks) in various power states
system.l2.WritebackDirty_hits::writebacks         2289                       # number of WritebackDirty hits
system.l2.WritebackDirty_hits::total             2289                       # number of WritebackDirty hits
system.l2.WritebackClean_hits::writebacks         2572                       # number of WritebackClean hits
system.l2.WritebackClean_hits::total             2572                       # number of WritebackClean hits
system.l2.UpgradeReq_hits::switch_cpus.data           15                       # number of UpgradeReq hits
system.l2.UpgradeReq_hits::total                   15                       # number of UpgradeReq hits
system.l2.ReadExReq_hits::switch_cpus.data          197                       # number of ReadExReq hits
system.l2.ReadExReq_hits::total                   197                       # number of ReadExReq hits
system.l2.ReadCleanReq_hits::switch_cpus.inst         2450                       # number of ReadCleanReq hits
system.l2.ReadCleanReq_hits::total               2450                       # number of ReadCleanReq hits
system.l2.ReadSharedReq_hits::switch_cpus.data        10681                       # number of ReadSharedReq hits
system.l2.ReadSharedReq_hits::total             10681                       # number of ReadSharedReq hits
system.l2.demand_hits::switch_cpus.inst          2450                       # number of demand (read+write) hits
system.l2.demand_hits::switch_cpus.data         10878                       # number of demand (read+write) hits
system.l2.demand_hits::total                    13328                       # number of demand (read+write) hits
system.l2.overall_hits::switch_cpus.inst         2450                       # number of overall hits
system.l2.overall_hits::switch_cpus.data        10878                       # number of overall hits
system.l2.overall_hits::total                   13328                       # number of overall hits
system.l2.ReadExReq_misses::switch_cpus.data          927                       # number of ReadExReq misses
system.l2.ReadExReq_misses::total                 927                       # number of ReadExReq misses
system.l2.ReadCleanReq_misses::cpu.inst             2                       # number of ReadCleanReq misses
system.l2.ReadCleanReq_misses::switch_cpus.inst          619                       # number of ReadCleanReq misses
system.l2.ReadCleanReq_misses::total              621                       # number of ReadCleanReq misses
system.l2.ReadSharedReq_misses::cpu.data            3                       # number of ReadSharedReq misses
system.l2.ReadSharedReq_misses::switch_cpus.data         1156                       # number of ReadSharedReq misses
system.l2.ReadSharedReq_misses::total            1159                       # number of ReadSharedReq misses
system.l2.demand_misses::cpu.inst                   2                       # number of demand (read+write) misses
system.l2.demand_misses::cpu.data                   3                       # number of demand (read+write) misses
system.l2.demand_misses::switch_cpus.inst          619                       # number of demand (read+write) misses
system.l2.demand_misses::switch_cpus.data         2083                       # number of demand (read+write) misses
system.l2.demand_misses::total                   2707                       # number of demand (read+write) misses
system.l2.overall_misses::cpu.inst                  2                       # number of overall misses
system.l2.overall_misses::cpu.data                  3                       # number of overall misses
system.l2.overall_misses::switch_cpus.inst          619                       # number of overall misses
system.l2.overall_misses::switch_cpus.data         2083                       # number of overall misses
system.l2.overall_misses::total                  2707                       # number of overall misses
system.l2.ReadExReq_miss_latency::switch_cpus.data     75734400                       # number of ReadExReq miss cycles
system.l2.ReadExReq_miss_latency::total      75734400                       # number of ReadExReq miss cycles
system.l2.ReadCleanReq_miss_latency::switch_cpus.inst     52269200                       # number of ReadCleanReq miss cycles
system.l2.ReadCleanReq_miss_latency::total     52269200                       # number of ReadCleanReq miss cycles
system.l2.ReadSharedReq_miss_latency::switch_cpus.data    100774000                       # number of ReadSharedReq miss cycles
system.l2.ReadSharedReq_miss_latency::total    100774000                       # number of ReadSharedReq miss cycles
system.l2.demand_miss_latency::switch_cpus.inst     52269200                       # number of demand (read+write) miss cycles
system.l2.demand_miss_latency::switch_cpus.data    176508400                       # number of demand (read+write) miss cycles
system.l2.demand_miss_latency::total        228777600                       # number of demand (read+write) miss cycles
system.l2.overall_miss_latency::switch_cpus.inst     52269200                       # number of overall miss cycles
[...]
system.switch_cpus.iq.fp_alu_accesses         1351180                       # Number of floating point alu accesses
system.switch_cpus.iew.lsq.thread0.forwLoads      2277124                       # Number of loads that had data forwarded from stores
system.switch_cpus.iew.lsq.thread0.invAddrLoads            0                       # Number of loads ignored due to an invalid address
system.switch_cpus.iew.lsq.thread0.squashedLoads      9074775                       # Number of loads squashed
system.switch_cpus.iew.lsq.thread0.ignoredResponses       119441                       # Number of memory responses ignored because the instruction is squashed
system.switch_cpus.iew.lsq.thread0.memOrderViolation         5405                       # Number of memory ordering violations
system.switch_cpus.iew.lsq.thread0.squashedStores      4352790                       # Number of stores squashed
system.switch_cpus.iew.lsq.thread0.invAddrSwpfs            0                       # Number of software prefetches ignored due to an invalid address
system.switch_cpus.iew.lsq.thread0.blockedLoads            0                       # Number of blocked loads due to partial load-store forwarding
system.switch_cpus.iew.lsq.thread0.rescheduledLoads         4009                       # Number of loads that were rescheduled
system.switch_cpus.iew.lsq.thread0.cacheBlocked      1767451                       # Number of times an access to memory failed due to the cache being blocked
system.switch_cpus.iew.iewIdleCycles                0                       # Number of cycles IEW is idle
system.switch_cpus.iew.iewSquashCycles        4261553                       # Number of cycles IEW is squashing
system.switch_cpus.iew.iewBlockCycles         7200108                       # Number of cycles IEW is blocking
system.switch_cpus.iew.iewUnblockCycles       1279257                       # Number of cycles IEW is unblocking
system.switch_cpus.iew.iewDispatchedInsts    249187090                       # Number of instructions dispatched to IQ
system.switch_cpus.iew.iewDispSquashedInsts      3507286                       # Number of squashed instructions skipped by dispatch
system.switch_cpus.iew.iewDispLoadInsts      37787813                       # Number of dispatched load instructions
system.switch_cpus.iew.iewDispStoreInsts     14833258                       # Number of dispatched store instructions
system.switch_cpus.iew.iewDispNonSpecInsts        97431                       # Number of dispatched non-speculative instructions
system.switch_cpus.iew.iewIQFullEvents          14930                       # Number of times the IQ has become full, causing a stall
system.switch_cpus.iew.iewLSQFullEvents       1243065                       # Number of times the LSQ has become full, causing a stall
system.switch_cpus.iew.memOrderViolationEvents         5405                       # Number of memory order violations
system.switch_cpus.iew.predictedTakenIncorrect      1632575                       # Number of branches that were predicted taken incorrectly
system.switch_cpus.iew.predictedNotTakenIncorrect      2999496                       # Number of branches that were predicted not taken incorrectly
system.switch_cpus.iew.branchMispredicts      4632071                       # Number of branch mispredicts detected at execute
system.switch_cpus.iew.iewExecutedInsts     231207346                       # Number of executed instructions
system.switch_cpus.iew.iewExecLoadInsts      36054513                       # Number of load instructions executed
system.switch_cpus.iew.iewExecSquashedInsts      8912716                       # Number of squashed instructions skipped in execute
system.switch_cpus.iew.exec_swp                     0                       # number of swp insts executed
system.switch_cpus.iew.exec_nop                     0                       # number of nop insts executed
system.switch_cpus.iew.exec_refs             48969660                       # number of memory reference insts executed
system.switch_cpus.iew.exec_branches         29768489                       # Number of branches executed
system.switch_cpus.iew.exec_stores           12915147                       # Number of stores executed
system.switch_cpus.iew.exec_rate             1.463405                       # Inst execution rate
system.switch_cpus.iew.wb_sent              227295528                       # cumulative count of insts sent to commit
system.switch_cpus.iew.wb_count             226486921                       # cumulative count of insts written-back
system.switch_cpus.iew.wb_producers         154783349                       # num instructions producing a value
system.switch_cpus.iew.wb_consumers         215890329                       # num instructions consuming a value
system.switch_cpus.iew.wb_rate               1.433528                       # insts written-back per cycle
system.switch_cpus.iew.wb_fanout             0.716954                       # average fanout of values written-back
system.switch_cpus.commit.commitSquashedInsts     52682031                       # The number of squashed insts skipped by commit
system.switch_cpus.commit.commitNonSpecStalls       139167                       # The number of times commit has been forced to stall to communicate backwards
system.switch_cpus.commit.branchMispredicts      4258446                       # The number of times a branch was mispredicted
system.switch_cpus.commit.committed_per_cycle::samples    147831533                       # Number of insts commited each cycle
system.switch_cpus.commit.committed_per_cycle::mean     1.329321                       # Number of insts commited each cycle
system.switch_cpus.commit.committed_per_cycle::stdev     1.404803                       # Number of insts commited each cycle
system.switch_cpus.commit.committed_per_cycle::underflows            0      0.00%      0.00% # Number of insts commited each cycle
system.switch_cpus.commit.committed_per_cycle::0     72387855     48.97%     48.97% # Number of insts commited each cycle
system.switch_cpus.commit.committed_per_cycle::1     11529049      7.80%     56.77% # Number of insts commited each cycle
system.switch_cpus.commit.committed_per_cycle::2      6757448      4.57%     61.34% # Number of insts commited each cycle
system.switch_cpus.commit.committed_per_cycle::3     57157181     38.66%    100.00% # Number of insts commited each cycle
system.switch_cpus.commit.committed_per_cycle::overflows            0      0.00%    100.00% # Number of insts commited each cycle
system.switch_cpus.commit.committed_per_cycle::min_value            0                       # Number of insts commited each cycle
system.switch_cpus.commit.committed_per_cycle::max_value            3                       # Number of insts commited each cycle
system.switch_cpus.commit.committed_per_cycle::total    147831533                       # Number of insts commited each cycle
system.switch_cpus.commit.committedInsts    100000000                       # Number of instructions committed
system.switch_cpus.commit.committedOps      196515488                       # Number of ops (including micro ops) committed
system.switch_cpus.commit.swp_count                 0                       # Number of s/w prefetches committed
system.switch_cpus.commit.refs               39193512                       # Number of memory references committed
system.switch_cpus.commit.loads              28713044                       # Number of loads committed
system.switch_cpus.commit.membars               92760                       # Number of memory barriers committed
system.switch_cpus.commit.branches           27540860                       # Number of branches committed
system.switch_cpus.commit.fp_insts             890297                       # Number of committed floating point instructions.
system.switch_cpus.commit.int_insts         195888294                       # Number of committed integer instructions.
system.switch_cpus.commit.function_calls      2610788                       # Number of function calls committed.
system.switch_cpus.commit.op_class_0::No_OpClass        98008      0.05%      0.05% # Class of committed instruction
system.switch_cpus.commit.op_class_0::IntAlu    156708582     79.74%     79.79% # Class of committed instruction
system.switch_cpus.commit.op_class_0::IntMult       167406      0.09%     79.88% # Class of committed instruction
system.switch_cpus.commit.op_class_0::IntDiv          232      0.00%     79.88% # Class of committed instruction
system.switch_cpus.commit.op_class_0::FloatAdd       347748      0.18%     80.06% # Class of committed instruction
system.switch_cpus.commit.op_class_0::FloatCmp            0      0.00%     80.06% # Class of committed instruction
system.switch_cpus.commit.op_class_0::FloatCvt            0      0.00%     80.06% # Class of committed instruction
system.switch_cpus.commit.op_class_0::FloatMult            0      0.00%     80.06% # Class of committed instruction
system.switch_cpus.commit.op_class_0::FloatMultAcc            0      0.00%     80.06% # Class of committed instruction
system.switch_cpus.commit.op_class_0::FloatDiv            0      0.00%     80.06% # Class of committed instruction
system.switch_cpus.commit.op_class_0::FloatMisc            0      0.00%     80.06% # Class of committed instruction
system.switch_cpus.commit.op_class_0::FloatSqrt            0      0.00%     80.06% # Class of committed instruction
system.switch_cpus.commit.op_class_0::SimdAdd            0      0.00%     80.06% # Class of committed instruction
system.switch_cpus.commit.op_class_0::SimdAddAcc            0      0.00%     80.06% # Class of committed instruction
system.switch_cpus.commit.op_class_0::SimdAlu            0      0.00%     80.06% # Class of committed instruction
system.switch_cpus.commit.op_class_0::SimdCmp            0      0.00%     80.06% # Class of committed instruction
system.switch_cpus.commit.op_class_0::SimdCvt            0      0.00%     80.06% # Class of committed instruction
system.switch_cpus.commit.op_class_0::SimdMisc            0      0.00%     80.06% # Class of committed instruction
system.switch_cpus.commit.op_class_0::SimdMult            0      0.00%     80.06% # Class of committed instruction
system.switch_cpus.commit.op_class_0::SimdMultAcc            0      0.00%     80.06% # Class of committed instruction
system.switch_cpus.commit.op_class_0::SimdShift            0      0.00%     80.06% # Class of committed instruction
system.switch_cpus.commit.op_class_0::SimdShiftAcc            0      0.00%     80.06% # Class of committed instruction
system.switch_cpus.commit.op_class_0::SimdSqrt            0      0.00%     80.06% # Class of committed instruction
system.switch_cpus.commit.op_class_0::SimdFloatAdd            0      0.00%     80.06% # Class of committed instruction
system.switch_cpus.commit.op_class_0::SimdFloatAlu            0      0.00%     80.06% # Class of committed instruction
system.switch_cpus.commit.op_class_0::SimdFloatCmp            0      0.00%     80.06% # Class of committed instruction
system.switch_cpus.commit.op_class_0::SimdFloatCvt            0      0.00%     80.06% # Class of committed instruction
system.switch_cpus.commit.op_class_0::SimdFloatDiv            0      0.00%     80.06% # Class of committed instruction
system.switch_cpus.commit.op_class_0::SimdFloatMisc            0      0.00%     80.06% # Class of committed instruction
system.switch_cpus.commit.op_class_0::SimdFloatMult            0      0.00%     80.06% # Class of committed instruction
system.switch_cpus.commit.op_class_0::SimdFloatMultAcc            0      0.00%     80.06% # Class of committed instruction
system.switch_cpus.commit.op_class_0::SimdFloatSqrt            0      0.00%     80.06% # Class of committed instruction
system.switch_cpus.commit.op_class_0::MemRead     28498617     14.50%     94.56% # Class of committed instruction
system.switch_cpus.commit.op_class_0::MemWrite     10306318      5.24%     99.80% # Class of committed instruction
system.switch_cpus.commit.op_class_0::FloatMemRead       214427      0.11%     99.91% # Class of committed instruction
system.switch_cpus.commit.op_class_0::FloatMemWrite       174150      0.09%    100.00% # Class of committed instruction
system.switch_cpus.commit.op_class_0::IprAccess            0      0.00%    100.00% # Class of committed instruction
system.switch_cpus.commit.op_class_0::InstPrefetch            0      0.00%    100.00% # Class of committed instruction
system.switch_cpus.commit.op_class_0::total    196515488                       # Class of committed instruction
system.switch_cpus.commit.bw_lim_events      57157181                       # number cycles where commit BW limit reached
system.switch_cpus.rob.rob_reads            339871871                       # The number of ROB reads
system.switch_cpus.rob.rob_writes           507255606                       # The number of ROB writes
system.switch_cpus.timesIdled                  129289                       # Number of times that the entire CPU went into an idle state and unscheduled itself
system.switch_cpus.idleCycles                 1359332                       # Total number of cycles that the CPU has spent unscheduled due to idling
system.switch_cpus.committedInsts           100000000                       # Number of Instructions Simulated
system.switch_cpus.committedOps             196515488                       # Number of Ops (including micro ops) Simulated
system.switch_cpus.cpi                       1.579927                       # CPI: Cycles Per Instruction
system.switch_cpus.cpi_total                 1.579927                       # CPI: Total CPI of All Threads
system.switch_cpus.ipc                       0.632941                       # IPC: Instructions Per Cycle
system.switch_cpus.ipc_total                 0.632941                       # IPC: Total IPC of All Threads
system.switch_cpus.int_regfile_reads        341983133                       # number of integer regfile reads
system.switch_cpus.int_regfile_writes       182275020                       # number of integer regfile writes
system.switch_cpus.fp_regfile_reads           1552471                       # number of floating regfile reads
system.switch_cpus.fp_regfile_writes           778204                       # number of floating regfile writes
system.switch_cpus.cc_regfile_reads         124215122                       # number of cc regfile reads
system.switch_cpus.cc_regfile_writes         71153605                       # number of cc regfile writes
system.switch_cpus.misc_regfile_reads       107890485                       # number of misc regfile reads
system.tol2bus.snoop_filter.tot_requests      3955269                       # Total number of requests made to the snoop filter.
system.tol2bus.snoop_filter.hit_single_requests      1977656                       # Number of requests hitting in the snoop filter with a single holder of the requested data.
system.tol2bus.snoop_filter.hit_multi_requests        27743                       # Number of requests hitting in the snoop filter with multiple (>1) holders of the requested data.
system.tol2bus.snoop_filter.tot_snoops           2152                       # Total number of snoops made to the snoop filter.
system.tol2bus.snoop_filter.hit_single_snoops         2143                       # Number of snoops hitting in the snoop filter with a single holder of the requested data.
system.tol2bus.snoop_filter.hit_multi_snoops            9                       # Number of snoops hitting in the snoop filter with multiple (>1) holders of the requested data.
system.tol2bus.pwrStateResidencyTicks::UNDEFINED  63197078800                       # Cumulative time (in ticks) in various power states
system.tol2bus.trans_dist::ReadResp           1763517                       # Transaction distribution
system.tol2bus.trans_dist::WritebackDirty      1370891                       # Transaction distribution
system.tol2bus.trans_dist::WritebackClean       336671                       # Transaction distribution
system.tol2bus.trans_dist::CleanEvict          476370                       # Transaction distribution
system.tol2bus.trans_dist::UpgradeReq            2016                       # Transaction distribution
system.tol2bus.trans_dist::UpgradeResp           2016                       # Transaction distribution
system.tol2bus.trans_dist::ReadExReq           214148                       # Transaction distribution
system.tol2bus.trans_dist::ReadExResp          214148                       # Transaction distribution
system.tol2bus.trans_dist::ReadCleanReq        338748                       # Transaction distribution
system.tol2bus.trans_dist::ReadSharedReq      1424769                       # Transaction distribution
system.tol2bus.pkt_count_system.cpu.icache.mem_side::system.l2.cpu_side      1012029                       # Packet count per connected master and slave (bytes)
system.tol2bus.pkt_count_system.cpu.dcache.mem_side::system.l2.cpu_side      4920783                       # Packet count per connected master and slave (bytes)
system.tol2bus.pkt_count::total               5932812                       # Packet count per connected master and slave (bytes)
system.tol2bus.pkt_size_system.cpu.icache.mem_side::system.l2.cpu_side     43089984                       # Cumulative packet size per connected master and slave (bytes)
system.tol2bus.pkt_size_system.cpu.dcache.mem_side::system.l2.cpu_side    180480832                       # Cumulative packet size per connected master and slave (bytes)
system.tol2bus.pkt_size::total              223570816                       # Cumulative packet size per connected master and slave (bytes)
system.tol2bus.snoops                          210482                       # Total snoops (count)
system.tol2bus.snoopTraffic                  12283712                       # Total snoop traffic (bytes)
system.tol2bus.snoop_fanout::samples          2188025                       # Request fanout histogram
system.tol2bus.snoop_fanout::mean            0.014609                       # Request fanout histogram
system.tol2bus.snoop_fanout::stdev           0.120014                       # Request fanout histogram
system.tol2bus.snoop_fanout::underflows             0      0.00%      0.00% # Request fanout histogram
system.tol2bus.snoop_fanout::0                2156070     98.54%     98.54% # Request fanout histogram
system.tol2bus.snoop_fanout::1                  31946      1.46%    100.00% # Request fanout histogram
system.tol2bus.snoop_fanout::2                      9      0.00%    100.00% # Request fanout histogram
system.tol2bus.snoop_fanout::3                      0      0.00%    100.00% # Request fanout histogram
system.tol2bus.snoop_fanout::4                      0      0.00%    100.00% # Request fanout histogram
system.tol2bus.snoop_fanout::overflows              0      0.00%    100.00% # Request fanout histogram
system.tol2bus.snoop_fanout::min_value              0                       # Request fanout histogram
system.tol2bus.snoop_fanout::max_value              2                       # Request fanout histogram
system.tol2bus.snoop_fanout::total            2188025                       # Request fanout histogram
system.tol2bus.reqLayer0.occupancy         2796323195                       # Layer occupancy (ticks)
system.tol2bus.reqLayer0.utilization              4.4                       # Layer utilization (%)
system.tol2bus.respLayer0.occupancy         406727424                       # Layer occupancy (ticks)
system.tol2bus.respLayer0.utilization             0.6                       # Layer utilization (%)
system.tol2bus.respLayer1.occupancy        1967557877                       # Layer occupancy (ticks)
system.tol2bus.respLayer1.utilization             3.1                       # Layer utilization (%)

---------- End Simulation Statistics   ----------
