gem5 Simulator System.  http://gem5.org
gem5 is copyrighted software; use the --copyright option for details.

gem5 compiled Nov 27 2016 12:46:38
gem5 started Dec  7 2016 03:09:29
gem5 executing on big.cerc.utexas.edu, pid 15212
command line: build/X86/gem5.fast -r --outdir=output/multiCore/cacheUpdate/calculix configs/example/multiCore.py --restore-simpoint-checkpoint -r 1 --checkpoint-dir=output/multiCore/calculixprofile/ '--cmd=../../../big/rrip/cpu2006/benchspec/CPU2006/454.calculix/exe/calculix_base.amd64-m64-gcc42-nn;../../../big/rrip/cpu2006/benchspec/CPU2006/454.calculix/exe/calculix_base.amd64-m64-gcc42-nn;../../../big/rrip/cpu2006/benchspec/CPU2006/454.calculix/exe/calculix_base.amd64-m64-gcc42-nn;../../../big/rrip/cpu2006/benchspec/CPU2006/454.calculix/exe/calculix_base.amd64-m64-gcc42-nn' '--options=../../../big/rrip/cpu2006/benchspec/CPU2006/454.calculix/data/test/input/beampic;../../../big/rrip/cpu2006/benchspec/CPU2006/454.calculix/data/test/input/beampic;../../../big/rrip/cpu2006/benchspec/CPU2006/454.calculix/data/test/input/beampic;../../../big/rrip/cpu2006/benchspec/CPU2006/454.calculix/data/test/input/beampic' --cpu-type=minor --caches --l2cache --num-cpus=4 --mem-size=4GB

Resuming from output/multiCore/calculixprofile/cpt.simpoint_00_inst_0_weight_1.000000_interval_10000000_warmup_0
Resuming from SimPoint #0, start_inst:0, weight:1.000000, interval:10000000, warmup:0
Global frequency set at 1000000000000 ticks per second
warn: DRAM device capacity (8192 Mbytes) does not match the address range assigned (4096 Mbytes)
0: system.remote_gdb.listener: listening for remote gdb on port 7036
0: system.remote_gdb.listener: listening for remote gdb on port 7037
0: system.remote_gdb.listener: listening for remote gdb on port 7038
0: system.remote_gdb.listener: listening for remote gdb on port 7039
warn: optional parameter system.cpu0.workload:M5_pid not present
warn: optional parameter system.cpu1.workload:M5_pid not present
warn: optional parameter system.cpu2.workload:M5_pid not present
warn: optional parameter system.cpu3.workload:M5_pid not present
Switch at curTick count:10000
warn: ClockedObject: More than one power state change request encountered within the same simulation tick
warn: ClockedObject: More than one power state change request encountered within the same simulation tick
warn: ClockedObject: More than one power state change request encountered within the same simulation tick
warn: ClockedObject: More than one power state change request encountered within the same simulation tick
warn: ClockedObject: More than one power state change request encountered within the same simulation tick
warn: ClockedObject: More than one power state change request encountered within the same simulation tick
warn: ClockedObject: More than one power state change request encountered within the same simulation tick
warn: ClockedObject: More than one power state change request encountered within the same simulation tick
info: Entering event queue @ 0.  Starting simulation...
Switched CPUS @ tick 833
switching cpus
info: Entering event queue @ 833.  Starting simulation...
info: Entering event queue @ 1666.  Starting simulation...
Warmed up! Dumping and resetting stats!
info: Entering event queue @ 196588.  Starting simulation...
warn: instruction 'fwait' unimplemented
warn: instruction 'fnclex' unimplemented
info: Increasing stack size by one page.
info: Increasing stack size by one page.
info: Increasing stack size by one page.
info: Increasing stack size by one page.
warn: ignoring syscall access(140737488345680, ...)
warn: ignoring syscall access(140737488345680, ...)
warn: ignoring syscall access(140737488345680, ...)
warn: ignoring syscall access(140737488345680, ...)
info: Increasing stack size by one page.
info: Increasing stack size by one page.
info: Increasing stack size by one page.
At line 48 of file openfile.f (unit = 5, file = '')
At line 48 of file openfile.f (unit = 5, file = '')
Fortran runtime error: At line 48 of file openfile.f (unit = 5, file = '')
File '../../../big/rrip/cpu2006/benchspec/CPU2006/454.calculix/data/test/input/beampic.dat' already existsFortran runtime error: 
File '../../../big/rrip/cpu2006/benchspec/CPU2006/454.calculix/data/test/input/beampic.dat' already existsFortran runtime error: 
File '../../../big/rrip/cpu2006/benchspec/CPU2006/454.calculix/data/test/input/beampic.dat' already exists

************************************************************

CalculiX DEVELOPMENT VERSION, Copyright(C) 1998 Guido Dhondt
CalculiX comes with ABSOLUTELY NO WARRANTY. This is free
software, and you are welcome to redistribute it under
certain conditions, see gpl.htm

************************************************************

 nload =            0
 nforc =            9
 nboun =           63
 nk =          261
 ne =           32
 ne1d =            0
 ne2d =            0
 nmpc =            1
 nset =            5
 nalset =          100
 nmat =            1
 ncmat =            2
 ntmat =            1
 npmat =            0
 norien =            0
 nam =            0
 namtot =            0
 noprint =          261
 neprint =           32
 mint =            8
 ntrans =            0
 ncs =            0
 memmpc =            1
info: Increasing stack size by one page.
info: Increasing stack size by one page.
info: Increasing stack size by one page.
info: Increasing stack size by one page.

 STEP            1

 Static analysis was selected

Decascading the MPC's

Renumbering the nodes to decrease the profile:
 old profile =            0 *2147483647+       25326
 new profile =            0 *2147483647+        7317

Determining the structure of the matrix:
number of equations
720
number of nonzero matrix elements
38178
total length of the skyline
0*2147483647+58986
percentage of nonzero skyline elements
63.943322

info: Increasing stack size by one page.
info: Increasing stack size by one page.
info: Increasing stack size by one page.
info: Increasing stack size by one page.
info: Increasing stack size by one page.
info: Increasing stack size by one page.
info: Increasing stack size by one page.
info: Increasing stack size by one page.
info: Increasing stack size by one page.
info: Increasing stack size by one page.
info: Increasing stack size by one page.
info: Increasing stack size by one page.
 Printing nodal quantities

 Printing element quantities

Exiting @ tick 429824672165 because target called exit()
