gem5 Simulator System.  http://gem5.org
gem5 is copyrighted software; use the --copyright option for details.

gem5 compiled Nov 23 2016 21:20:46
gem5 started Nov 24 2016 15:27:45
gem5 executing on supreme.cerc.utexas.edu, pid 25240
command line: build/X86/gem5.fast -r --outdir=output/multiCore1mb/run2 configs/example/multiCore-1mb.py --cpu-type=minor --caches --l2cache '--cmd=../../../rrip/cpu2006/benchspec/CPU2006/437.leslie3d/exe/leslie3d_base.amd64-m64-gcc42-nn;../../../rrip/cpu2006/benchspec/CPU2006/454.calculix/exe/calculix_base.amd64-m64-gcc42-nn;../../../rrip/cpu2006/benchspec/CPU2006/436.cactusADM/exe/cactusADM_base.amd64-m64-gcc42-nn' '--input=../../../rrip/cpu2006/benchspec/CPU2006/437.leslie3d/data/test/input/leslie3d.in;;' '--options=;../../../rrip/cpu2006/benchspec/CPU2006/454.calculix/data/test/input/beampic;../../../rrip/cpu2006/benchspec/CPU2006/436.cactusADM/data/test/input/benchADM.par' '--output=output/multiCore1mb/run2/leslie3d.stdout;output/multiCore1mb/run2/beampic.log;output/multiCore1mb/run2/benchADM.out' --num-cpus=3 --mem-size=1GB

Global frequency set at 1000000000000 ticks per second
warn: DRAM device capacity (8192 Mbytes) does not match the address range assigned (1024 Mbytes)
0: system.remote_gdb.listener: listening for remote gdb on port 7028
0: system.remote_gdb.listener: listening for remote gdb on port 7031
0: system.remote_gdb.listener: listening for remote gdb on port 7033
warn: ClockedObject: More than one power state change request encountered within the same simulation tick
warn: ClockedObject: More than one power state change request encountered within the same simulation tick
warn: ClockedObject: More than one power state change request encountered within the same simulation tick
**** REAL SIMULATION ****
info: Entering event queue @ 0.  Starting simulation...
warn: instruction 'fwait' unimplemented
warn: instruction 'fnclex' unimplemented
info: Increasing stack size by one page.
warn: readlink() called on '/proc/self/exe' may yield unexpected results in various settings.
      Returning '/home/local/big/rrip/cpu2006/benchspec/CPU2006/437.leslie3d/exe/leslie3d_base.amd64-m64-gcc42-nn'
warn: ignoring syscall rt_sigaction(3, ...)
      (further warnings will be suppressed)
info: Increasing stack size by one page.
warn: ignoring syscall access(140737488345696, ...)
info: Increasing stack size by one page.
info: Increasing stack size by one page.
info: Increasing stack size by one page.
info: Increasing stack size by one page.
info: Increasing stack size by one page.
info: Increasing stack size by one page.
info: Increasing stack size by one page.
info: Increasing stack size by one page.
info: Increasing stack size by one page.
info: Increasing stack size by one page.
info: Increasing stack size by one page.
info: Increasing stack size by one page.
info: Increasing stack size by one page.
info: Increasing stack size by one page.
info: Increasing stack size by one page.
info: Increasing stack size by one page.
info: Increasing stack size by one page.
info: Increasing stack size by one page.
