
---------- Begin Simulation Statistics ----------
sim_seconds                                  0.003311                       # Number of seconds simulated
sim_ticks                                  3310828408                       # Number of ticks simulated
final_tick                               1425278640408                       # Number of ticks from beginning of simulation (restored from checkpoints and never reset)
sim_freq                                 1000000000000                       # Frequency of simulated ticks
host_inst_rate                                  78350                       # Simulator instruction rate (inst/s)
host_op_rate                                   140135                       # Simulator op (including micro ops) rate (op/s)
host_tick_rate                               64850586                       # Simulator tick rate (ticks/s)
host_mem_usage                                4559136                       # Number of bytes of host memory used
host_seconds                                    51.05                       # Real time elapsed on the host
sim_insts                                     3999996                       # Number of instructions simulated
sim_ops                                       7154315                       # Number of ops (including micro ops) simulated
system.voltage_domain.voltage                       1                       # Voltage in Volts
system.clk_domain.clock                          1000                       # Clock period in ticks
system.mem_ctrls.pwrStateResidencyTicks::UNDEFINED 1425278640408                       # Cumulative time (in ticks) in various power states
system.mem_ctrls.bytes_read::cpu0.inst            128                       # Number of bytes read from this memory
system.mem_ctrls.bytes_read::cpu0.data            320                       # Number of bytes read from this memory
system.mem_ctrls.bytes_read::cpu1.inst            128                       # Number of bytes read from this memory
system.mem_ctrls.bytes_read::cpu1.data            320                       # Number of bytes read from this memory
system.mem_ctrls.bytes_read::cpu2.inst            128                       # Number of bytes read from this memory
system.mem_ctrls.bytes_read::cpu2.data            320                       # Number of bytes read from this memory
system.mem_ctrls.bytes_read::cpu3.inst            128                       # Number of bytes read from this memory
system.mem_ctrls.bytes_read::cpu3.data            320                       # Number of bytes read from this memory
system.mem_ctrls.bytes_read::switch_cpus0.inst        56768                       # Number of bytes read from this memory
system.mem_ctrls.bytes_read::switch_cpus0.data        83392                       # Number of bytes read from this memory
system.mem_ctrls.bytes_read::switch_cpus1.inst        56960                       # Number of bytes read from this memory
system.mem_ctrls.bytes_read::switch_cpus1.data        82752                       # Number of bytes read from this memory
system.mem_ctrls.bytes_read::switch_cpus2.inst        56704                       # Number of bytes read from this memory
system.mem_ctrls.bytes_read::switch_cpus2.data        83904                       # Number of bytes read from this memory
system.mem_ctrls.bytes_read::switch_cpus3.inst        57088                       # Number of bytes read from this memory
system.mem_ctrls.bytes_read::switch_cpus3.data        84352                       # Number of bytes read from this memory
system.mem_ctrls.bytes_read::total             563712                       # Number of bytes read from this memory
system.mem_ctrls.bytes_inst_read::cpu0.inst          128                       # Number of instructions bytes read from this memory
system.mem_ctrls.bytes_inst_read::cpu1.inst          128                       # Number of instructions bytes read from this memory
system.mem_ctrls.bytes_inst_read::cpu2.inst          128                       # Number of instructions bytes read from this memory
system.mem_ctrls.bytes_inst_read::cpu3.inst          128                       # Number of instructions bytes read from this memory
system.mem_ctrls.bytes_inst_read::switch_cpus0.inst        56768                       # Number of instructions bytes read from this memory
system.mem_ctrls.bytes_inst_read::switch_cpus1.inst        56960                       # Number of instructions bytes read from this memory
system.mem_ctrls.bytes_inst_read::switch_cpus2.inst        56704                       # Number of instructions bytes read from this memory
system.mem_ctrls.bytes_inst_read::switch_cpus3.inst        57088                       # Number of instructions bytes read from this memory
system.mem_ctrls.bytes_inst_read::total        228032                       # Number of instructions bytes read from this memory
system.mem_ctrls.bytes_written::writebacks         2240                       # Number of bytes written to this memory
system.mem_ctrls.bytes_written::total            2240                       # Number of bytes written to this memory
system.mem_ctrls.num_reads::cpu0.inst               2                       # Number of read requests responded to by this memory
system.mem_ctrls.num_reads::cpu0.data               5                       # Number of read requests responded to by this memory
system.mem_ctrls.num_reads::cpu1.inst               2                       # Number of read requests responded to by this memory
system.mem_ctrls.num_reads::cpu1.data               5                       # Number of read requests responded to by this memory
system.mem_ctrls.num_reads::cpu2.inst               2                       # Number of read requests responded to by this memory
system.mem_ctrls.num_reads::cpu2.data               5                       # Number of read requests responded to by this memory
system.mem_ctrls.num_reads::cpu3.inst               2                       # Number of read requests responded to by this memory
system.mem_ctrls.num_reads::cpu3.data               5                       # Number of read requests responded to by this memory
system.mem_ctrls.num_reads::switch_cpus0.inst          887                       # Number of read requests responded to by this memory
system.mem_ctrls.num_reads::switch_cpus0.data         1303                       # Number of read requests responded to by this memory
system.mem_ctrls.num_reads::switch_cpus1.inst          890                       # Number of read requests responded to by this memory
system.mem_ctrls.num_reads::switch_cpus1.data         1293                       # Number of read requests responded to by this memory
system.mem_ctrls.num_reads::switch_cpus2.inst          886                       # Number of read requests responded to by this memory
system.mem_ctrls.num_reads::switch_cpus2.data         1311                       # Number of read requests responded to by this memory
system.mem_ctrls.num_reads::switch_cpus3.inst          892                       # Number of read requests responded to by this memory
system.mem_ctrls.num_reads::switch_cpus3.data         1318                       # Number of read requests responded to by this memory
system.mem_ctrls.num_reads::total                8808                       # Number of read requests responded to by this memory
system.mem_ctrls.num_writes::writebacks            35                       # Number of write requests responded to by this memory
system.mem_ctrls.num_writes::total                 35                       # Number of write requests responded to by this memory
system.mem_ctrls.bw_read::cpu0.inst             38661                       # Total read bandwidth from this memory (bytes/s)
system.mem_ctrls.bw_read::cpu0.data             96653                       # Total read bandwidth from this memory (bytes/s)
system.mem_ctrls.bw_read::cpu1.inst             38661                       # Total read bandwidth from this memory (bytes/s)
system.mem_ctrls.bw_read::cpu1.data             96653                       # Total read bandwidth from this memory (bytes/s)
system.mem_ctrls.bw_read::cpu2.inst             38661                       # Total read bandwidth from this memory (bytes/s)
system.mem_ctrls.bw_read::cpu2.data             96653                       # Total read bandwidth from this memory (bytes/s)
system.mem_ctrls.bw_read::cpu3.inst             38661                       # Total read bandwidth from this memory (bytes/s)
system.mem_ctrls.bw_read::cpu3.data             96653                       # Total read bandwidth from this memory (bytes/s)
system.mem_ctrls.bw_read::switch_cpus0.inst     17146162                       # Total read bandwidth from this memory (bytes/s)
system.mem_ctrls.bw_read::switch_cpus0.data     25187654                       # Total read bandwidth from this memory (bytes/s)
system.mem_ctrls.bw_read::switch_cpus1.inst     17204153                       # Total read bandwidth from this memory (bytes/s)
system.mem_ctrls.bw_read::switch_cpus1.data     24994349                       # Total read bandwidth from this memory (bytes/s)
system.mem_ctrls.bw_read::switch_cpus2.inst     17126831                       # Total read bandwidth from this memory (bytes/s)
system.mem_ctrls.bw_read::switch_cpus2.data     25342298                       # Total read bandwidth from this memory (bytes/s)
system.mem_ctrls.bw_read::switch_cpus3.inst     17242814                       # Total read bandwidth from this memory (bytes/s)
system.mem_ctrls.bw_read::switch_cpus3.data     25477612                       # Total read bandwidth from this memory (bytes/s)
system.mem_ctrls.bw_read::total             170263128                       # Total read bandwidth from this memory (bytes/s)
system.mem_ctrls.bw_inst_read::cpu0.inst        38661                       # Instruction read bandwidth from this memory (bytes/s)
system.mem_ctrls.bw_inst_read::cpu1.inst        38661                       # Instruction read bandwidth from this memory (bytes/s)
system.mem_ctrls.bw_inst_read::cpu2.inst        38661                       # Instruction read bandwidth from this memory (bytes/s)
system.mem_ctrls.bw_inst_read::cpu3.inst        38661                       # Instruction read bandwidth from this memory (bytes/s)
system.mem_ctrls.bw_inst_read::switch_cpus0.inst     17146162                       # Instruction read bandwidth from this memory (bytes/s)
system.mem_ctrls.bw_inst_read::switch_cpus1.inst     17204153                       # Instruction read bandwidth from this memory (bytes/s)
system.mem_ctrls.bw_inst_read::switch_cpus2.inst     17126831                       # Instruction read bandwidth from this memory (bytes/s)
system.mem_ctrls.bw_inst_read::switch_cpus3.inst     17242814                       # Instruction read bandwidth from this memory (bytes/s)
system.mem_ctrls.bw_inst_read::total         68874605                       # Instruction read bandwidth from this memory (bytes/s)
system.mem_ctrls.bw_write::writebacks          676568                       # Write bandwidth from this memory (bytes/s)
system.mem_ctrls.bw_write::total               676568                       # Write bandwidth from this memory (bytes/s)
system.mem_ctrls.bw_total::writebacks          676568                       # Total bandwidth to/from this memory (bytes/s)
system.mem_ctrls.bw_total::cpu0.inst            38661                       # Total bandwidth to/from this memory (bytes/s)
system.mem_ctrls.bw_total::cpu0.data            96653                       # Total bandwidth to/from this memory (bytes/s)
system.mem_ctrls.bw_total::cpu1.inst            38661                       # Total bandwidth to/from this memory (bytes/s)
system.mem_ctrls.bw_total::cpu1.data            96653                       # Total bandwidth to/from this memory (bytes/s)
system.mem_ctrls.bw_total::cpu2.inst            38661                       # Total bandwidth to/from this memory (bytes/s)
system.mem_ctrls.bw_total::cpu2.data            96653                       # Total bandwidth to/from this memory (bytes/s)
system.mem_ctrls.bw_total::cpu3.inst            38661                       # Total bandwidth to/from this memory (bytes/s)
system.mem_ctrls.bw_total::cpu3.data            96653                       # Total bandwidth to/from this memory (bytes/s)
system.mem_ctrls.bw_total::switch_cpus0.inst     17146162                       # Total bandwidth to/from this memory (bytes/s)
system.mem_ctrls.bw_total::switch_cpus0.data     25187654                       # Total bandwidth to/from this memory (bytes/s)
system.mem_ctrls.bw_total::switch_cpus1.inst     17204153                       # Total bandwidth to/from this memory (bytes/s)
system.mem_ctrls.bw_total::switch_cpus1.data     24994349                       # Total bandwidth to/from this memory (bytes/s)
system.mem_ctrls.bw_total::switch_cpus2.inst     17126831                       # Total bandwidth to/from this memory (bytes/s)
system.mem_ctrls.bw_total::switch_cpus2.data     25342298                       # Total bandwidth to/from this memory (bytes/s)
system.mem_ctrls.bw_total::switch_cpus3.inst     17242814                       # Total bandwidth to/from this memory (bytes/s)
system.mem_ctrls.bw_total::switch_cpus3.data     25477612                       # Total bandwidth to/from this memory (bytes/s)
system.mem_ctrls.bw_total::total            170939696                       # Total bandwidth to/from this memory (bytes/s)
system.mem_ctrls.readReqs                        8780                       # Number of read requests accepted
system.mem_ctrls.writeReqs                         35                       # Number of write requests accepted
system.mem_ctrls.readBursts                      8780                       # Number of DRAM read bursts, including those serviced by the write queue
system.mem_ctrls.writeBursts                       35                       # Number of DRAM write bursts, including those merged in the write queue
system.mem_ctrls.bytesReadDRAM                 560128                       # Total number of bytes read from DRAM
system.mem_ctrls.bytesReadWrQ                    1792                       # Total number of bytes read from write queue
system.mem_ctrls.bytesWritten                       0                       # Total number of bytes written to DRAM
system.mem_ctrls.bytesReadSys                  561920                       # Total read bytes from the system interface side
system.mem_ctrls.bytesWrittenSys                 2240                       # Total written bytes from the system interface side
system.mem_ctrls.servicedByWrQ                     28                       # Number of DRAM read bursts serviced by the write queue
system.mem_ctrls.mergedWrBursts                    13                       # Number of DRAM write bursts merged with an existing one
system.mem_ctrls.neitherReadNorWriteReqs            0                       # Number of requests that are neither read nor write
system.mem_ctrls.perBankRdBursts::0               577                       # Per bank write bursts
system.mem_ctrls.perBankRdBursts::1               776                       # Per bank write bursts
system.mem_ctrls.perBankRdBursts::2               472                       # Per bank write bursts
system.mem_ctrls.perBankRdBursts::3               374                       # Per bank write bursts
system.mem_ctrls.perBankRdBursts::4               629                       # Per bank write bursts
system.mem_ctrls.perBankRdBursts::5               770                       # Per bank write bursts
system.mem_ctrls.perBankRdBursts::6               860                       # Per bank write bursts
system.mem_ctrls.perBankRdBursts::7              1077                       # Per bank write bursts
system.mem_ctrls.perBankRdBursts::8               965                       # Per bank write bursts
system.mem_ctrls.perBankRdBursts::9               542                       # Per bank write bursts
system.mem_ctrls.perBankRdBursts::10              216                       # Per bank write bursts
system.mem_ctrls.perBankRdBursts::11              142                       # Per bank write bursts
system.mem_ctrls.perBankRdBursts::12              263                       # Per bank write bursts
system.mem_ctrls.perBankRdBursts::13              441                       # Per bank write bursts
system.mem_ctrls.perBankRdBursts::14              393                       # Per bank write bursts
system.mem_ctrls.perBankRdBursts::15              255                       # Per bank write bursts
system.mem_ctrls.perBankWrBursts::0                 0                       # Per bank write bursts
system.mem_ctrls.perBankWrBursts::1                 0                       # Per bank write bursts
system.mem_ctrls.perBankWrBursts::2                 0                       # Per bank write bursts
system.mem_ctrls.perBankWrBursts::3                 0                       # Per bank write bursts
system.mem_ctrls.perBankWrBursts::4                 0                       # Per bank write bursts
system.mem_ctrls.perBankWrBursts::5                 0                       # Per bank write bursts
system.mem_ctrls.perBankWrBursts::6                 0                       # Per bank write bursts
system.mem_ctrls.perBankWrBursts::7                 0                       # Per bank write bursts
system.mem_ctrls.perBankWrBursts::8                 0                       # Per bank write bursts
system.mem_ctrls.perBankWrBursts::9                 0                       # Per bank write bursts
system.mem_ctrls.perBankWrBursts::10                0                       # Per bank write bursts
system.mem_ctrls.perBankWrBursts::11                0                       # Per bank write bursts
system.mem_ctrls.perBankWrBursts::12                0                       # Per bank write bursts
system.mem_ctrls.perBankWrBursts::13                0                       # Per bank write bursts
system.mem_ctrls.perBankWrBursts::14                0                       # Per bank write bursts
system.mem_ctrls.perBankWrBursts::15                0                       # Per bank write bursts
system.mem_ctrls.numRdRetry                         0                       # Number of times read queue was full causing retry
system.mem_ctrls.numWrRetry                         0                       # Number of times write queue was full causing retry
system.mem_ctrls.totGap                    3296320111                       # Total gap between requests
system.mem_ctrls.readPktSize::0                     0                       # Read request sizes (log2)
system.mem_ctrls.readPktSize::1                     0                       # Read request sizes (log2)
system.mem_ctrls.readPktSize::2                     0                       # Read request sizes (log2)
system.mem_ctrls.readPktSize::3                     0                       # Read request sizes (log2)
system.mem_ctrls.readPktSize::4                     0                       # Read request sizes (log2)
system.mem_ctrls.readPktSize::5                     0                       # Read request sizes (log2)
system.mem_ctrls.readPktSize::6                  8780                       # Read request sizes (log2)
system.mem_ctrls.writePktSize::0                    0                       # Write request sizes (log2)
system.mem_ctrls.writePktSize::1                    0                       # Write request sizes (log2)
system.mem_ctrls.writePktSize::2                    0                       # Write request sizes (log2)
system.mem_ctrls.writePktSize::3                    0                       # Write request sizes (log2)
system.mem_ctrls.writePktSize::4                    0                       # Write request sizes (log2)
system.mem_ctrls.writePktSize::5                    0                       # Write request sizes (log2)
system.mem_ctrls.writePktSize::6                   35                       # Write request sizes (log2)
system.mem_ctrls.rdQLenPdf::0                    3948                       # What read queue length does an incoming req see
system.mem_ctrls.rdQLenPdf::1                    2770                       # What read queue length does an incoming req see
system.mem_ctrls.rdQLenPdf::2                    1314                       # What read queue length does an incoming req see
system.mem_ctrls.rdQLenPdf::3                     482                       # What read queue length does an incoming req see
system.mem_ctrls.rdQLenPdf::4                     137                       # What read queue length does an incoming req see
system.mem_ctrls.rdQLenPdf::5                      65                       # What read queue length does an incoming req see
system.mem_ctrls.rdQLenPdf::6                      22                       # What read queue length does an incoming req see
system.mem_ctrls.rdQLenPdf::7                       9                       # What read queue length does an incoming req see
system.mem_ctrls.rdQLenPdf::8                       2                       # What read queue length does an incoming req see
system.mem_ctrls.rdQLenPdf::9                       3                       # What read queue length does an incoming req see
system.mem_ctrls.rdQLenPdf::10                      0                       # What read queue length does an incoming req see
system.mem_ctrls.rdQLenPdf::11                      0                       # What read queue length does an incoming req see
system.mem_ctrls.rdQLenPdf::12                      0                       # What read queue length does an incoming req see
system.mem_ctrls.rdQLenPdf::13                      0                       # What read queue length does an incoming req see
system.mem_ctrls.rdQLenPdf::14                      0                       # What read queue length does an incoming req see
system.mem_ctrls.rdQLenPdf::15                      0                       # What read queue length does an incoming req see
system.mem_ctrls.rdQLenPdf::16                      0                       # What read queue length does an incoming req see
system.mem_ctrls.rdQLenPdf::17                      0                       # What read queue length does an incoming req see
system.mem_ctrls.rdQLenPdf::18                      0                       # What read queue length does an incoming req see
system.mem_ctrls.rdQLenPdf::19                      0                       # What read queue length does an incoming req see
system.mem_ctrls.rdQLenPdf::20                      0                       # What read queue length does an incoming req see
system.mem_ctrls.rdQLenPdf::21                      0                       # What read queue length does an incoming req see
system.mem_ctrls.rdQLenPdf::22                      0                       # What read queue length does an incoming req see
system.mem_ctrls.rdQLenPdf::23                      0                       # What read queue length does an incoming req see
system.mem_ctrls.rdQLenPdf::24                      0                       # What read queue length does an incoming req see
system.mem_ctrls.rdQLenPdf::25                      0                       # What read queue length does an incoming req see
system.mem_ctrls.rdQLenPdf::26                      0                       # What read queue length does an incoming req see
system.mem_ctrls.rdQLenPdf::27                      0                       # What read queue length does an incoming req see
system.mem_ctrls.rdQLenPdf::28                      0                       # What read queue length does an incoming req see
system.mem_ctrls.rdQLenPdf::29                      0                       # What read queue length does an incoming req see
system.mem_ctrls.rdQLenPdf::30                      0                       # What read queue length does an incoming req see
system.mem_ctrls.rdQLenPdf::31                      0                       # What read queue length does an incoming req see
system.mem_ctrls.wrQLenPdf::0                       1                       # What write queue length does an incoming req see
system.mem_ctrls.wrQLenPdf::1                       1                       # What write queue length does an incoming req see
system.mem_ctrls.wrQLenPdf::2                       1                       # What write queue length does an incoming req see
system.mem_ctrls.wrQLenPdf::3                       1                       # What write queue length does an incoming req see
system.mem_ctrls.wrQLenPdf::4                       1                       # What write queue length does an incoming req see
system.mem_ctrls.wrQLenPdf::5                       1                       # What write queue length does an incoming req see
system.mem_ctrls.wrQLenPdf::6                       1                       # What write queue length does an incoming req see
system.mem_ctrls.wrQLenPdf::7                       1                       # What write queue length does an incoming req see
system.mem_ctrls.wrQLenPdf::8                       1                       # What write queue length does an incoming req see
system.mem_ctrls.wrQLenPdf::9                       1                       # What write queue length does an incoming req see
system.mem_ctrls.wrQLenPdf::10                      1                       # What write queue length does an incoming req see
system.mem_ctrls.wrQLenPdf::11                      1                       # What write queue length does an incoming req see
system.mem_ctrls.wrQLenPdf::12                      1                       # What write queue length does an incoming req see
system.mem_ctrls.wrQLenPdf::13                      1                       # What write queue length does an incoming req see
system.mem_ctrls.wrQLenPdf::14                      1                       # What write queue length does an incoming req see
system.mem_ctrls.wrQLenPdf::15                      1                       # What write queue length does an incoming req see
system.mem_ctrls.wrQLenPdf::16                      1                       # What write queue length does an incoming req see
system.mem_ctrls.wrQLenPdf::17                      1                       # What write queue length does an incoming req see
system.mem_ctrls.wrQLenPdf::18                      1                       # What write queue length does an incoming req see
system.mem_ctrls.wrQLenPdf::19                      1                       # What write queue length does an incoming req see
system.mem_ctrls.wrQLenPdf::20                      1                       # What write queue length does an incoming req see
system.mem_ctrls.wrQLenPdf::21                      1                       # What write queue length does an incoming req see
system.mem_ctrls.wrQLenPdf::22                      0                       # What write queue length does an incoming req see
system.mem_ctrls.wrQLenPdf::23                      0                       # What write queue length does an incoming req see
system.mem_ctrls.wrQLenPdf::24                      0                       # What write queue length does an incoming req see
system.mem_ctrls.wrQLenPdf::25                      0                       # What write queue length does an incoming req see
system.mem_ctrls.wrQLenPdf::26                      0                       # What write queue length does an incoming req see
system.mem_ctrls.wrQLenPdf::27                      0                       # What write queue length does an incoming req see
system.mem_ctrls.wrQLenPdf::28                      0                       # What write queue length does an incoming req see
system.mem_ctrls.wrQLenPdf::29                      0                       # What write queue length does an incoming req see
system.mem_ctrls.wrQLenPdf::30                      0                       # What write queue length does an incoming req see
system.mem_ctrls.wrQLenPdf::31                      0                       # What write queue length does an incoming req see
system.mem_ctrls.wrQLenPdf::32                      0                       # What write queue length does an incoming req see
system.mem_ctrls.wrQLenPdf::33                      0                       # What write queue length does an incoming req see
system.mem_ctrls.wrQLenPdf::34                      0                       # What write queue length does an incoming req see
system.mem_ctrls.wrQLenPdf::35                      0                       # What write queue length does an incoming req see
system.mem_ctrls.wrQLenPdf::36                      0                       # What write queue length does an incoming req see
system.mem_ctrls.wrQLenPdf::37                      0                       # What write queue length does an incoming req see
system.mem_ctrls.wrQLenPdf::38                      0                       # What write queue length does an incoming req see
system.mem_ctrls.wrQLenPdf::39                      0                       # What write queue length does an incoming req see
system.mem_ctrls.wrQLenPdf::40                      0                       # What write queue length does an incoming req see
system.mem_ctrls.wrQLenPdf::41                      0                       # What write queue length does an incoming req see
system.mem_ctrls.wrQLenPdf::42                      0                       # What write queue length does an incoming req see
system.mem_ctrls.wrQLenPdf::43                      0                       # What write queue length does an incoming req see
system.mem_ctrls.wrQLenPdf::44                      0                       # What write queue length does an incoming req see
system.mem_ctrls.wrQLenPdf::45                      0                       # What write queue length does an incoming req see
system.mem_ctrls.wrQLenPdf::46                      0                       # What write queue length does an incoming req see
system.mem_ctrls.wrQLenPdf::47                      0                       # What write queue length does an incoming req see
system.mem_ctrls.wrQLenPdf::48                      0                       # What write queue length does an incoming req see
system.mem_ctrls.wrQLenPdf::49                      0                       # What write queue length does an incoming req see
system.mem_ctrls.wrQLenPdf::50                      0                       # What write queue length does an incoming req see
system.mem_ctrls.wrQLenPdf::51                      0                       # What write queue length does an incoming req see
system.mem_ctrls.wrQLenPdf::52                      0                       # What write queue length does an incoming req see
system.mem_ctrls.wrQLenPdf::53                      0                       # What write queue length does an incoming req see
system.mem_ctrls.wrQLenPdf::54                      0                       # What write queue length does an incoming req see
system.mem_ctrls.wrQLenPdf::55                      0                       # What write queue length does an incoming req see
system.mem_ctrls.wrQLenPdf::56                      0                       # What write queue length does an incoming req see
system.mem_ctrls.wrQLenPdf::57                      0                       # What write queue length does an incoming req see
system.mem_ctrls.wrQLenPdf::58                      0                       # What write queue length does an incoming req see
system.mem_ctrls.wrQLenPdf::59                      0                       # What write queue length does an incoming req see
system.mem_ctrls.wrQLenPdf::60                      0                       # What write queue length does an incoming req see
system.mem_ctrls.wrQLenPdf::61                      0                       # What write queue length does an incoming req see
system.mem_ctrls.wrQLenPdf::62                      0                       # What write queue length does an incoming req see
system.mem_ctrls.wrQLenPdf::63                      0                       # What write queue length does an incoming req see
system.mem_ctrls.bytesPerActivate::samples         4835                       # Bytes accessed per row activation
system.mem_ctrls.bytesPerActivate::mean    115.848604                       # Bytes accessed per row activation
system.mem_ctrls.bytesPerActivate::gmean    87.572433                       # Bytes accessed per row activation
system.mem_ctrls.bytesPerActivate::stdev   138.595641                       # Bytes accessed per row activation
system.mem_ctrls.bytesPerActivate::0-127         3572     73.88%     73.88% # Bytes accessed per row activation
system.mem_ctrls.bytesPerActivate::128-255          801     16.57%     90.44% # Bytes accessed per row activation
system.mem_ctrls.bytesPerActivate::256-383          221      4.57%     95.02% # Bytes accessed per row activation
system.mem_ctrls.bytesPerActivate::384-511           86      1.78%     96.79% # Bytes accessed per row activation
system.mem_ctrls.bytesPerActivate::512-639           53      1.10%     97.89% # Bytes accessed per row activation
system.mem_ctrls.bytesPerActivate::640-767           35      0.72%     98.61% # Bytes accessed per row activation
system.mem_ctrls.bytesPerActivate::768-895           17      0.35%     98.97% # Bytes accessed per row activation
system.mem_ctrls.bytesPerActivate::896-1023            8      0.17%     99.13% # Bytes accessed per row activation
system.mem_ctrls.bytesPerActivate::1024-1151           42      0.87%    100.00% # Bytes accessed per row activation
system.mem_ctrls.bytesPerActivate::total         4835                       # Bytes accessed per row activation
system.mem_ctrls.totQLat                    324924559                       # Total ticks spent queuing
system.mem_ctrls.totMemAccLat               489024559                       # Total ticks spent from burst creation until serviced by the DRAM
system.mem_ctrls.totBusLat                   43760000                       # Total ticks spent in databus transfers
system.mem_ctrls.avgQLat                     37125.75                       # Average queueing delay per DRAM burst
system.mem_ctrls.avgBusLat                    5000.00                       # Average bus latency per DRAM burst
system.mem_ctrls.avgMemAccLat                55875.75                       # Average memory access latency per DRAM burst
system.mem_ctrls.avgRdBW                       169.18                       # Average DRAM read bandwidth in MiByte/s
system.mem_ctrls.avgWrBW                         0.00                       # Average achieved write bandwidth in MiByte/s
system.mem_ctrls.avgRdBWSys                    169.72                       # Average system read bandwidth in MiByte/s
system.mem_ctrls.avgWrBWSys                      0.68                       # Average system write bandwidth in MiByte/s
system.mem_ctrls.peakBW                      12800.00                       # Theoretical peak bandwidth in MiByte/s
system.mem_ctrls.busUtil                         1.32                       # Data bus utilization in percentage
system.mem_ctrls.busUtilRead                     1.32                       # Data bus utilization in percentage for reads
system.mem_ctrls.busUtilWrite                    0.00                       # Data bus utilization in percentage for writes
system.mem_ctrls.avgRdQLen                       1.21                       # Average read queue length when enqueuing
system.mem_ctrls.avgWrQLen                      11.95                       # Average write queue length when enqueuing
system.mem_ctrls.readRowHits                     3917                       # Number of row buffer hits during reads
system.mem_ctrls.writeRowHits                       0                       # Number of row buffer hits during writes
system.mem_ctrls.readRowHitRate                 44.76                       # Row buffer hit rate for reads
system.mem_ctrls.writeRowHitRate                 0.00                       # Row buffer hit rate for writes
system.mem_ctrls.avgGap                     373944.43                       # Average gap between requests
system.mem_ctrls.pageHitRate                    44.64                       # Row buffer hit rate, read and write combined
system.mem_ctrls_0.actEnergy                 20963040                       # Energy for activate commands per rank (pJ)
system.mem_ctrls_0.preEnergy                 11142120                       # Energy for precharge commands per rank (pJ)
system.mem_ctrls_0.readEnergy                39519900                       # Energy for read commands per rank (pJ)
system.mem_ctrls_0.writeEnergy                      0                       # Energy for write commands per rank (pJ)
system.mem_ctrls_0.refreshEnergy         161650320.000000                       # Energy for refresh commands per rank (pJ)
system.mem_ctrls_0.actBackEnergy            104519760                       # Energy for active background per rank (pJ)
system.mem_ctrls_0.preBackEnergy              9037440                       # Energy for precharge background per rank (pJ)
system.mem_ctrls_0.actPowerDownEnergy       378609960                       # Energy for active power-down per rank (pJ)
system.mem_ctrls_0.prePowerDownEnergy       206305920                       # Energy for precharge power-down per rank (pJ)
system.mem_ctrls_0.selfRefreshEnergy        438310260                       # Energy for self refresh per rank (pJ)
system.mem_ctrls_0.totalEnergy             1370058720                       # Total energy per rank (pJ)
system.mem_ctrls_0.averagePower            413.812662                       # Core power per rank (mW)
system.mem_ctrls_0.totalIdleTime           3054897955                       # Total Idle time Per DRAM Rank
system.mem_ctrls_0.memoryStateTime::IDLE     16441236                       # Time in different power states
system.mem_ctrls_0.memoryStateTime::REF      68740000                       # Time in different power states
system.mem_ctrls_0.memoryStateTime::SREF   1690533408                       # Time in different power states
system.mem_ctrls_0.memoryStateTime::PRE_PDN    537259321                       # Time in different power states
system.mem_ctrls_0.memoryStateTime::ACT     167564600                       # Time in different power states
system.mem_ctrls_0.memoryStateTime::ACT_PDN    830279843                       # Time in different power states
system.mem_ctrls_1.actEnergy                 13558860                       # Energy for activate commands per rank (pJ)
system.mem_ctrls_1.preEnergy                  7206705                       # Energy for precharge commands per rank (pJ)
system.mem_ctrls_1.readEnergy                22969380                       # Energy for read commands per rank (pJ)
system.mem_ctrls_1.writeEnergy                      0                       # Energy for write commands per rank (pJ)
system.mem_ctrls_1.refreshEnergy         161035680.000000                       # Energy for refresh commands per rank (pJ)
system.mem_ctrls_1.actBackEnergy             78465060                       # Energy for active background per rank (pJ)
system.mem_ctrls_1.preBackEnergy             10087680                       # Energy for precharge background per rank (pJ)
system.mem_ctrls_1.actPowerDownEnergy       355421790                       # Energy for active power-down per rank (pJ)
system.mem_ctrls_1.prePowerDownEnergy       221021760                       # Energy for precharge power-down per rank (pJ)
system.mem_ctrls_1.selfRefreshEnergy        459343920                       # Energy for self refresh per rank (pJ)
system.mem_ctrls_1.totalEnergy             1329110835                       # Total energy per rank (pJ)
system.mem_ctrls_1.averagePower            401.444759                       # Core power per rank (mW)
system.mem_ctrls_1.totalIdleTime           3106368303                       # Total Idle time Per DRAM Rank
system.mem_ctrls_1.memoryStateTime::IDLE     18800965                       # Time in different power states
system.mem_ctrls_1.memoryStateTime::REF      68534000                       # Time in different power states
system.mem_ctrls_1.memoryStateTime::SREF   1757469097                       # Time in different power states
system.mem_ctrls_1.memoryStateTime::PRE_PDN    575584534                       # Time in different power states
system.mem_ctrls_1.memoryStateTime::ACT     111026079                       # Time in different power states
system.mem_ctrls_1.memoryStateTime::ACT_PDN    779403733                       # Time in different power states
system.pwrStateResidencyTicks::UNDEFINED 1425278640408                       # Cumulative time (in ticks) in various power states
system.cpu_voltage_domain.voltage                   1                       # Voltage in Volts
system.cpu_clk_domain.clock                       833                       # Clock period in ticks
system.cpu0.dtb.walker.pwrStateResidencyTicks::UNDEFINED 1425278640408                       # Cumulative time (in ticks) in various power states
system.cpu0.apic_clk_domain.clock               13328                       # Clock period in ticks
system.cpu0.interrupts.pwrStateResidencyTicks::UNDEFINED 1425278640408                       # Cumulative time (in ticks) in various power states
system.cpu0.itb.walker.pwrStateResidencyTicks::UNDEFINED 1425278640408                       # Cumulative time (in ticks) in various power states
system.cpu0.workload.num_syscalls                   0                       # Number of system calls
system.cpu0.pwrStateResidencyTicks::ON     3310828408                       # Cumulative time (in ticks) in various power states
system.cpu0.numCycles                              11                       # number of cpu cycles simulated
system.cpu0.numWorkItemsStarted                     0                       # number of work items this cpu started
system.cpu0.numWorkItemsCompleted                   0                       # number of work items this cpu completed
system.cpu0.committedInsts                          6                       # Number of instructions committed
system.cpu0.committedOps                            7                       # Number of ops (including micro ops) committed
system.cpu0.num_int_alu_accesses                    5                       # Number of integer alu accesses
system.cpu0.num_fp_alu_accesses                     4                       # Number of float alu accesses
system.cpu0.num_func_calls                          0                       # number of times a function call or return occured
system.cpu0.num_conditional_control_insts            0                       # number of instructions that are conditional controls
system.cpu0.num_int_insts                           5                       # number of integer instructions
system.cpu0.num_fp_insts                            4                       # number of float instructions
system.cpu0.num_int_register_reads                 15                       # number of times the integer registers were read
system.cpu0.num_int_register_writes                 3                       # number of times the integer registers were written
system.cpu0.num_fp_register_reads                   6                       # number of times the floating registers were read
system.cpu0.num_fp_register_writes                  4                       # number of times the floating registers were written
system.cpu0.num_mem_refs                            5                       # number of memory refs
system.cpu0.num_load_insts                          5                       # Number of load instructions
system.cpu0.num_store_insts                         0                       # Number of store instructions
system.cpu0.num_idle_cycles                         0                       # Number of idle cycles
system.cpu0.num_busy_cycles                        11                       # Number of busy cycles
system.cpu0.not_idle_fraction                       1                       # Percentage of non-idle cycles
system.cpu0.idle_fraction                           0                       # Percentage of idle cycles
system.cpu0.op_class::No_OpClass                    0      0.00%      0.00% # Class of executed instruction
system.cpu0.op_class::IntAlu                        0      0.00%      0.00% # Class of executed instruction
system.cpu0.op_class::IntMult                       0      0.00%      0.00% # Class of executed instruction
system.cpu0.op_class::IntDiv                        0      0.00%      0.00% # Class of executed instruction
system.cpu0.op_class::FloatAdd                      2     28.57%     28.57% # Class of executed instruction
system.cpu0.op_class::FloatCmp                      0      0.00%     28.57% # Class of executed instruction
system.cpu0.op_class::FloatCvt                      0      0.00%     28.57% # Class of executed instruction
system.cpu0.op_class::FloatMult                     0      0.00%     28.57% # Class of executed instruction
system.cpu0.op_class::FloatMultAcc                  0      0.00%     28.57% # Class of executed instruction
system.cpu0.op_class::FloatDiv                      0      0.00%     28.57% # Class of executed instruction
system.cpu0.op_class::FloatMisc                     0      0.00%     28.57% # Class of executed instruction
system.cpu0.op_class::FloatSqrt                     0      0.00%     28.57% # Class of executed instruction
system.cpu0.op_class::SimdAdd                       0      0.00%     28.57% # Class of executed instruction
system.cpu0.op_class::SimdAddAcc                    0      0.00%     28.57% # Class of executed instruction
system.cpu0.op_class::SimdAlu                       0      0.00%     28.57% # Class of executed instruction
system.cpu0.op_class::SimdCmp                       0      0.00%     28.57% # Class of executed instruction
system.cpu0.op_class::SimdCvt                       0      0.00%     28.57% # Class of executed instruction
system.cpu0.op_class::SimdMisc                      0      0.00%     28.57% # Class of executed instruction
system.cpu0.op_class::SimdMult                      0      0.00%     28.57% # Class of executed instruction
system.cpu0.op_class::SimdMultAcc                   0      0.00%     28.57% # Class of executed instruction
system.cpu0.op_class::SimdShift                     0      0.00%     28.57% # Class of executed instruction
system.cpu0.op_class::SimdShiftAcc                  0      0.00%     28.57% # Class of executed instruction
system.cpu0.op_class::SimdSqrt                      0      0.00%     28.57% # Class of executed instruction
system.cpu0.op_class::SimdFloatAdd                  0      0.00%     28.57% # Class of executed instruction
system.cpu0.op_class::SimdFloatAlu                  0      0.00%     28.57% # Class of executed instruction
system.cpu0.op_class::SimdFloatCmp                  0      0.00%     28.57% # Class of executed instruction
system.cpu0.op_class::SimdFloatCvt                  0      0.00%     28.57% # Class of executed instruction
system.cpu0.op_class::SimdFloatDiv                  0      0.00%     28.57% # Class of executed instruction
system.cpu0.op_class::SimdFloatMisc                 0      0.00%     28.57% # Class of executed instruction
system.cpu0.op_class::SimdFloatMult                 0      0.00%     28.57% # Class of executed instruction
system.cpu0.op_class::SimdFloatMultAcc              0      0.00%     28.57% # Class of executed instruction
system.cpu0.op_class::SimdFloatSqrt                 0      0.00%     28.57% # Class of executed instruction
system.cpu0.op_class::MemRead                       3     42.86%     71.43% # Class of executed instruction
system.cpu0.op_class::MemWrite                      0      0.00%     71.43% # Class of executed instruction
system.cpu0.op_class::FloatMemRead                  2     28.57%    100.00% # Class of executed instruction
system.cpu0.op_class::FloatMemWrite                 0      0.00%    100.00% # Class of executed instruction
system.cpu0.op_class::IprAccess                     0      0.00%    100.00% # Class of executed instruction
system.cpu0.op_class::InstPrefetch                  0      0.00%    100.00% # Class of executed instruction
system.cpu0.op_class::total                         7                       # Class of executed instruction
system.cpu0.dcache.tags.pwrStateResidencyTicks::UNDEFINED 1425278640408                       # Cumulative time (in ticks) in various power states
system.cpu0.dcache.tags.replacements            28932                       # number of replacements
system.cpu0.dcache.tags.tagsinuse          127.450100                       # Cycle average of tags in use
system.cpu0.dcache.tags.total_refs             471572                       # Total number of references to valid blocks.
system.cpu0.dcache.tags.sampled_refs            28932                       # Sample count of references to valid blocks.
system.cpu0.dcache.tags.avg_refs            16.299323                       # Average number of references to valid blocks.
system.cpu0.dcache.tags.warmup_cycle     1422005278610                       # Cycle when the warmup percentage was hit.
system.cpu0.dcache.tags.occ_blocks::cpu0.data     0.042119                       # Average occupied blocks per requestor
system.cpu0.dcache.tags.occ_blocks::switch_cpus0.data   127.407982                       # Average occupied blocks per requestor
system.cpu0.dcache.tags.occ_percent::cpu0.data     0.000329                       # Average percentage of cache occupancy
system.cpu0.dcache.tags.occ_percent::switch_cpus0.data     0.995375                       # Average percentage of cache occupancy
system.cpu0.dcache.tags.occ_percent::total     0.995704                       # Average percentage of cache occupancy
system.cpu0.dcache.tags.occ_task_id_blocks::1024          128                       # Occupied blocks per task id
system.cpu0.dcache.tags.age_task_id_blocks_1024::0           49                       # Occupied blocks per task id
system.cpu0.dcache.tags.age_task_id_blocks_1024::1           78                       # Occupied blocks per task id
system.cpu0.dcache.tags.age_task_id_blocks_1024::2            1                       # Occupied blocks per task id
system.cpu0.dcache.tags.occ_task_id_percent::1024            1                       # Percentage of cache occupancy per task id
system.cpu0.dcache.tags.tag_accesses          4106492                       # Number of tag accesses
system.cpu0.dcache.tags.data_accesses         4106492                       # Number of data accesses
system.cpu0.dcache.pwrStateResidencyTicks::UNDEFINED 1425278640408                       # Cumulative time (in ticks) in various power states
system.cpu0.dcache.ReadReq_hits::switch_cpus0.data       348817                       # number of ReadReq hits
system.cpu0.dcache.ReadReq_hits::total         348817                       # number of ReadReq hits
system.cpu0.dcache.WriteReq_hits::switch_cpus0.data       130171                       # number of WriteReq hits
system.cpu0.dcache.WriteReq_hits::total        130171                       # number of WriteReq hits
system.cpu0.dcache.demand_hits::switch_cpus0.data       478988                       # number of demand (read+write) hits
system.cpu0.dcache.demand_hits::total          478988                       # number of demand (read+write) hits
system.cpu0.dcache.overall_hits::switch_cpus0.data       478988                       # number of overall hits
system.cpu0.dcache.overall_hits::total         478988                       # number of overall hits
system.cpu0.dcache.ReadReq_misses::cpu0.data            5                       # number of ReadReq misses
system.cpu0.dcache.ReadReq_misses::switch_cpus0.data        26749                       # number of ReadReq misses
system.cpu0.dcache.ReadReq_misses::total        26754                       # number of ReadReq misses
system.cpu0.dcache.WriteReq_misses::switch_cpus0.data         3937                       # number of WriteReq misses
system.cpu0.dcache.WriteReq_misses::total         3937                       # number of WriteReq misses
system.cpu0.dcache.demand_misses::cpu0.data            5                       # number of demand (read+write) misses
system.cpu0.dcache.demand_misses::switch_cpus0.data        30686                       # number of demand (read+write) misses
system.cpu0.dcache.demand_misses::total         30691                       # number of demand (read+write) misses
system.cpu0.dcache.overall_misses::cpu0.data            5                       # number of overall misses
system.cpu0.dcache.overall_misses::switch_cpus0.data        30686                       # number of overall misses
system.cpu0.dcache.overall_misses::total        30691                       # number of overall misses
system.cpu0.dcache.ReadReq_miss_latency::switch_cpus0.data    704796302                       # number of ReadReq miss cycles
system.cpu0.dcache.ReadReq_miss_latency::total    704796302                       # number of ReadReq miss cycles
system.cpu0.dcache.WriteReq_miss_latency::switch_cpus0.data    105125433                       # number of WriteReq miss cycles
system.cpu0.dcache.WriteReq_miss_latency::total    105125433                       # number of WriteReq miss cycles
system.cpu0.dcache.demand_miss_latency::switch_cpus0.data    809921735                       # number of demand (read+write) miss cycles
system.cpu0.dcache.demand_miss_latency::total    809921735                       # number of demand (read+write) miss cycles
system.cpu0.dcache.overall_miss_latency::switch_cpus0.data    809921735                       # number of overall miss cycles
system.cpu0.dcache.overall_miss_latency::total    809921735                       # number of overall miss cycles
system.cpu0.dcache.ReadReq_accesses::cpu0.data            5                       # number of ReadReq accesses(hits+misses)
system.cpu0.dcache.ReadReq_accesses::switch_cpus0.data       375566                       # number of ReadReq accesses(hits+misses)
system.cpu0.dcache.ReadReq_accesses::total       375571                       # number of ReadReq accesses(hits+misses)
system.cpu0.dcache.WriteReq_accesses::switch_cpus0.data       134108                       # number of WriteReq accesses(hits+misses)
system.cpu0.dcache.WriteReq_accesses::total       134108                       # number of WriteReq accesses(hits+misses)
system.cpu0.dcache.demand_accesses::cpu0.data            5                       # number of demand (read+write) accesses
system.cpu0.dcache.demand_accesses::switch_cpus0.data       509674                       # number of demand (read+write) accesses
system.cpu0.dcache.demand_accesses::total       509679                       # number of demand (read+write) accesses
system.cpu0.dcache.overall_accesses::cpu0.data            5                       # number of overall (read+write) accesses
system.cpu0.dcache.overall_accesses::switch_cpus0.data       509674                       # number of overall (read+write) accesses
system.cpu0.dcache.overall_accesses::total       509679                       # number of overall (read+write) accesses
system.cpu0.dcache.ReadReq_miss_rate::cpu0.data            1                       # miss rate for ReadReq accesses
system.cpu0.dcache.ReadReq_miss_rate::switch_cpus0.data     0.071223                       # miss rate for ReadReq accesses
system.cpu0.dcache.ReadReq_miss_rate::total     0.071236                       # miss rate for ReadReq accesses
system.cpu0.dcache.WriteReq_miss_rate::switch_cpus0.data     0.029357                       # miss rate for WriteReq accesses
system.cpu0.dcache.WriteReq_miss_rate::total     0.029357                       # miss rate for WriteReq accesses
system.cpu0.dcache.demand_miss_rate::cpu0.data            1                       # miss rate for demand accesses
system.cpu0.dcache.demand_miss_rate::switch_cpus0.data     0.060207                       # miss rate for demand accesses
system.cpu0.dcache.demand_miss_rate::total     0.060216                       # miss rate for demand accesses
system.cpu0.dcache.overall_miss_rate::cpu0.data            1                       # miss rate for overall accesses
system.cpu0.dcache.overall_miss_rate::switch_cpus0.data     0.060207                       # miss rate for overall accesses
system.cpu0.dcache.overall_miss_rate::total     0.060216                       # miss rate for overall accesses
system.cpu0.dcache.ReadReq_avg_miss_latency::switch_cpus0.data 26348.510299                       # average ReadReq miss latency
system.cpu0.dcache.ReadReq_avg_miss_latency::total 26343.586081                       # average ReadReq miss latency
system.cpu0.dcache.WriteReq_avg_miss_latency::switch_cpus0.data 26701.913386                       # average WriteReq miss latency
system.cpu0.dcache.WriteReq_avg_miss_latency::total 26701.913386                       # average WriteReq miss latency
system.cpu0.dcache.demand_avg_miss_latency::switch_cpus0.data 26393.851757                       # average overall miss latency
system.cpu0.dcache.demand_avg_miss_latency::total 26389.551823                       # average overall miss latency
system.cpu0.dcache.overall_avg_miss_latency::switch_cpus0.data 26393.851757                       # average overall miss latency
system.cpu0.dcache.overall_avg_miss_latency::total 26389.551823                       # average overall miss latency
system.cpu0.dcache.blocked_cycles::no_mshrs            0                       # number of cycles access was blocked
system.cpu0.dcache.blocked_cycles::no_targets            0                       # number of cycles access was blocked
system.cpu0.dcache.blocked::no_mshrs                0                       # number of cycles access was blocked
system.cpu0.dcache.blocked::no_targets              0                       # number of cycles access was blocked
system.cpu0.dcache.avg_blocked_cycles::no_mshrs          nan                       # average number of cycles each access was blocked
system.cpu0.dcache.avg_blocked_cycles::no_targets          nan                       # average number of cycles each access was blocked
system.cpu0.dcache.writebacks::writebacks         5103                       # number of writebacks
system.cpu0.dcache.writebacks::total             5103                       # number of writebacks
system.cpu0.dcache.ReadReq_mshr_hits::switch_cpus0.data          393                       # number of ReadReq MSHR hits
system.cpu0.dcache.ReadReq_mshr_hits::total          393                       # number of ReadReq MSHR hits
system.cpu0.dcache.WriteReq_mshr_hits::switch_cpus0.data         1238                       # number of WriteReq MSHR hits
system.cpu0.dcache.WriteReq_mshr_hits::total         1238                       # number of WriteReq MSHR hits
system.cpu0.dcache.demand_mshr_hits::switch_cpus0.data         1631                       # number of demand (read+write) MSHR hits
system.cpu0.dcache.demand_mshr_hits::total         1631                       # number of demand (read+write) MSHR hits
system.cpu0.dcache.overall_mshr_hits::switch_cpus0.data         1631                       # number of overall MSHR hits
system.cpu0.dcache.overall_mshr_hits::total         1631                       # number of overall MSHR hits
system.cpu0.dcache.ReadReq_mshr_misses::switch_cpus0.data        26356                       # number of ReadReq MSHR misses
system.cpu0.dcache.ReadReq_mshr_misses::total        26356                       # number of ReadReq MSHR misses
system.cpu0.dcache.WriteReq_mshr_misses::switch_cpus0.data         2699                       # number of WriteReq MSHR misses
system.cpu0.dcache.WriteReq_mshr_misses::total         2699                       # number of WriteReq MSHR misses
system.cpu0.dcache.demand_mshr_misses::switch_cpus0.data        29055                       # number of demand (read+write) MSHR misses
system.cpu0.dcache.demand_mshr_misses::total        29055                       # number of demand (read+write) MSHR misses
system.cpu0.dcache.overall_mshr_misses::switch_cpus0.data        29055                       # number of overall MSHR misses
system.cpu0.dcache.overall_mshr_misses::total        29055                       # number of overall MSHR misses
system.cpu0.dcache.ReadReq_mshr_miss_latency::switch_cpus0.data    649725839                       # number of ReadReq MSHR miss cycles
system.cpu0.dcache.ReadReq_mshr_miss_latency::total    649725839                       # number of ReadReq MSHR miss cycles
system.cpu0.dcache.WriteReq_mshr_miss_latency::switch_cpus0.data     72143631                       # number of WriteReq MSHR miss cycles
system.cpu0.dcache.WriteReq_mshr_miss_latency::total     72143631                       # number of WriteReq MSHR miss cycles
system.cpu0.dcache.demand_mshr_miss_latency::switch_cpus0.data    721869470                       # number of demand (read+write) MSHR miss cycles
system.cpu0.dcache.demand_mshr_miss_latency::total    721869470                       # number of demand (read+write) MSHR miss cycles
system.cpu0.dcache.overall_mshr_miss_latency::switch_cpus0.data    721869470                       # number of overall MSHR miss cycles
system.cpu0.dcache.overall_mshr_miss_latency::total    721869470                       # number of overall MSHR miss cycles
system.cpu0.dcache.ReadReq_mshr_miss_rate::switch_cpus0.data     0.070177                       # mshr miss rate for ReadReq accesses
system.cpu0.dcache.ReadReq_mshr_miss_rate::total     0.070176                       # mshr miss rate for ReadReq accesses
system.cpu0.dcache.WriteReq_mshr_miss_rate::switch_cpus0.data     0.020126                       # mshr miss rate for WriteReq accesses
system.cpu0.dcache.WriteReq_mshr_miss_rate::total     0.020126                       # mshr miss rate for WriteReq accesses
system.cpu0.dcache.demand_mshr_miss_rate::switch_cpus0.data     0.057007                       # mshr miss rate for demand accesses
system.cpu0.dcache.demand_mshr_miss_rate::total     0.057006                       # mshr miss rate for demand accesses
system.cpu0.dcache.overall_mshr_miss_rate::switch_cpus0.data     0.057007                       # mshr miss rate for overall accesses
system.cpu0.dcache.overall_mshr_miss_rate::total     0.057006                       # mshr miss rate for overall accesses
system.cpu0.dcache.ReadReq_avg_mshr_miss_latency::switch_cpus0.data 24651.913758                       # average ReadReq mshr miss latency
system.cpu0.dcache.ReadReq_avg_mshr_miss_latency::total 24651.913758                       # average ReadReq mshr miss latency
system.cpu0.dcache.WriteReq_avg_mshr_miss_latency::switch_cpus0.data 26729.763246                       # average WriteReq mshr miss latency
system.cpu0.dcache.WriteReq_avg_mshr_miss_latency::total 26729.763246                       # average WriteReq mshr miss latency
system.cpu0.dcache.demand_avg_mshr_miss_latency::switch_cpus0.data 24844.930993                       # average overall mshr miss latency
system.cpu0.dcache.demand_avg_mshr_miss_latency::total 24844.930993                       # average overall mshr miss latency
system.cpu0.dcache.overall_avg_mshr_miss_latency::switch_cpus0.data 24844.930993                       # average overall mshr miss latency
system.cpu0.dcache.overall_avg_mshr_miss_latency::total 24844.930993                       # average overall mshr miss latency
system.cpu0.dtb_walker_cache.tags.pwrStateResidencyTicks::UNDEFINED 1425278640408                       # Cumulative time (in ticks) in various power states
system.cpu0.dtb_walker_cache.tags.replacements            0                       # number of replacements
system.cpu0.dtb_walker_cache.tags.tagsinuse            0                       # Cycle average of tags in use
system.cpu0.dtb_walker_cache.tags.total_refs            0                       # Total number of references to valid blocks.
system.cpu0.dtb_walker_cache.tags.sampled_refs            0                       # Sample count of references to valid blocks.
system.cpu0.dtb_walker_cache.tags.avg_refs          nan                       # Average number of references to valid blocks.
system.cpu0.dtb_walker_cache.tags.warmup_cycle            0                       # Cycle when the warmup percentage was hit.
system.cpu0.dtb_walker_cache.tags.tag_accesses            0                       # Number of tag accesses
system.cpu0.dtb_walker_cache.tags.data_accesses            0                       # Number of data accesses
system.cpu0.dtb_walker_cache.pwrStateResidencyTicks::UNDEFINED 1425278640408                       # Cumulative time (in ticks) in various power states
system.cpu0.dtb_walker_cache.blocked_cycles::no_mshrs            0                       # number of cycles access was blocked
system.cpu0.dtb_walker_cache.blocked_cycles::no_targets            0                       # number of cycles access was blocked
system.cpu0.dtb_walker_cache.blocked::no_mshrs            0                       # number of cycles access was blocked
system.cpu0.dtb_walker_cache.blocked::no_targets            0                       # number of cycles access was blocked
system.cpu0.dtb_walker_cache.avg_blocked_cycles::no_mshrs          nan                       # average number of cycles each access was blocked
system.cpu0.dtb_walker_cache.avg_blocked_cycles::no_targets          nan                       # average number of cycles each access was blocked
system.cpu0.icache.tags.pwrStateResidencyTicks::UNDEFINED 1425278640408                       # Cumulative time (in ticks) in various power states
system.cpu0.icache.tags.replacements            17629                       # number of replacements
system.cpu0.icache.tags.tagsinuse          127.545099                       # Cycle average of tags in use
system.cpu0.icache.tags.total_refs             329713                       # Total number of references to valid blocks.
system.cpu0.icache.tags.sampled_refs            17629                       # Sample count of references to valid blocks.
system.cpu0.icache.tags.avg_refs            18.702876                       # Average number of references to valid blocks.
system.cpu0.icache.tags.warmup_cycle     1422007995023                       # Cycle when the warmup percentage was hit.
system.cpu0.icache.tags.occ_blocks::cpu0.inst     0.013013                       # Average occupied blocks per requestor
system.cpu0.icache.tags.occ_blocks::switch_cpus0.inst   127.532086                       # Average occupied blocks per requestor
system.cpu0.icache.tags.occ_percent::cpu0.inst     0.000102                       # Average percentage of cache occupancy
system.cpu0.icache.tags.occ_percent::switch_cpus0.inst     0.996344                       # Average percentage of cache occupancy
system.cpu0.icache.tags.occ_percent::total     0.996446                       # Average percentage of cache occupancy
system.cpu0.icache.tags.occ_task_id_blocks::1024          128                       # Occupied blocks per task id
system.cpu0.icache.tags.age_task_id_blocks_1024::0           42                       # Occupied blocks per task id
system.cpu0.icache.tags.age_task_id_blocks_1024::1           86                       # Occupied blocks per task id
system.cpu0.icache.tags.occ_task_id_percent::1024            1                       # Percentage of cache occupancy per task id
system.cpu0.icache.tags.tag_accesses          2802989                       # Number of tag accesses
system.cpu0.icache.tags.data_accesses         2802989                       # Number of data accesses
system.cpu0.icache.pwrStateResidencyTicks::UNDEFINED 1425278640408                       # Cumulative time (in ticks) in various power states
system.cpu0.icache.ReadReq_hits::cpu0.inst            8                       # number of ReadReq hits
system.cpu0.icache.ReadReq_hits::switch_cpus0.inst       330389                       # number of ReadReq hits
system.cpu0.icache.ReadReq_hits::total         330397                       # number of ReadReq hits
system.cpu0.icache.demand_hits::cpu0.inst            8                       # number of demand (read+write) hits
system.cpu0.icache.demand_hits::switch_cpus0.inst       330389                       # number of demand (read+write) hits
system.cpu0.icache.demand_hits::total          330397                       # number of demand (read+write) hits
system.cpu0.icache.overall_hits::cpu0.inst            8                       # number of overall hits
system.cpu0.icache.overall_hits::switch_cpus0.inst       330389                       # number of overall hits
system.cpu0.icache.overall_hits::total         330397                       # number of overall hits
system.cpu0.icache.ReadReq_misses::cpu0.inst            2                       # number of ReadReq misses
system.cpu0.icache.ReadReq_misses::switch_cpus0.inst        17755                       # number of ReadReq misses
system.cpu0.icache.ReadReq_misses::total        17757                       # number of ReadReq misses
system.cpu0.icache.demand_misses::cpu0.inst            2                       # number of demand (read+write) misses
system.cpu0.icache.demand_misses::switch_cpus0.inst        17755                       # number of demand (read+write) misses
system.cpu0.icache.demand_misses::total         17757                       # number of demand (read+write) misses
system.cpu0.icache.overall_misses::cpu0.inst            2                       # number of overall misses
system.cpu0.icache.overall_misses::switch_cpus0.inst        17755                       # number of overall misses
system.cpu0.icache.overall_misses::total        17757                       # number of overall misses
system.cpu0.icache.ReadReq_miss_latency::switch_cpus0.inst    485634835                       # number of ReadReq miss cycles
system.cpu0.icache.ReadReq_miss_latency::total    485634835                       # number of ReadReq miss cycles
system.cpu0.icache.demand_miss_latency::switch_cpus0.inst    485634835                       # number of demand (read+write) miss cycles
system.cpu0.icache.demand_miss_latency::total    485634835                       # number of demand (read+write) miss cycles
system.cpu0.icache.overall_miss_latency::switch_cpus0.inst    485634835                       # number of overall miss cycles
system.cpu0.icache.overall_miss_latency::total    485634835                       # number of overall miss cycles
system.cpu0.icache.ReadReq_accesses::cpu0.inst           10                       # number of ReadReq accesses(hits+misses)
system.cpu0.icache.ReadReq_accesses::switch_cpus0.inst       348144                       # number of ReadReq accesses(hits+misses)
system.cpu0.icache.ReadReq_accesses::total       348154                       # number of ReadReq accesses(hits+misses)
system.cpu0.icache.demand_accesses::cpu0.inst           10                       # number of demand (read+write) accesses
system.cpu0.icache.demand_accesses::switch_cpus0.inst       348144                       # number of demand (read+write) accesses
system.cpu0.icache.demand_accesses::total       348154                       # number of demand (read+write) accesses
system.cpu0.icache.overall_accesses::cpu0.inst           10                       # number of overall (read+write) accesses
system.cpu0.icache.overall_accesses::switch_cpus0.inst       348144                       # number of overall (read+write) accesses
system.cpu0.icache.overall_accesses::total       348154                       # number of overall (read+write) accesses
system.cpu0.icache.ReadReq_miss_rate::cpu0.inst     0.200000                       # miss rate for ReadReq accesses
system.cpu0.icache.ReadReq_miss_rate::switch_cpus0.inst     0.050999                       # miss rate for ReadReq accesses
system.cpu0.icache.ReadReq_miss_rate::total     0.051003                       # miss rate for ReadReq accesses
system.cpu0.icache.demand_miss_rate::cpu0.inst     0.200000                       # miss rate for demand accesses
system.cpu0.icache.demand_miss_rate::switch_cpus0.inst     0.050999                       # miss rate for demand accesses
system.cpu0.icache.demand_miss_rate::total     0.051003                       # miss rate for demand accesses
system.cpu0.icache.overall_miss_rate::cpu0.inst     0.200000                       # miss rate for overall accesses
system.cpu0.icache.overall_miss_rate::switch_cpus0.inst     0.050999                       # miss rate for overall accesses
system.cpu0.icache.overall_miss_rate::total     0.051003                       # miss rate for overall accesses
system.cpu0.icache.ReadReq_avg_miss_latency::switch_cpus0.inst 27352.004224                       # average ReadReq miss latency
system.cpu0.icache.ReadReq_avg_miss_latency::total 27348.923523                       # average ReadReq miss latency
system.cpu0.icache.demand_avg_miss_latency::switch_cpus0.inst 27352.004224                       # average overall miss latency
system.cpu0.icache.demand_avg_miss_latency::total 27348.923523                       # average overall miss latency
system.cpu0.icache.overall_avg_miss_latency::switch_cpus0.inst 27352.004224                       # average overall miss latency
system.cpu0.icache.overall_avg_miss_latency::total 27348.923523                       # average overall miss latency
system.cpu0.icache.blocked_cycles::no_mshrs            0                       # number of cycles access was blocked
system.cpu0.icache.blocked_cycles::no_targets            0                       # number of cycles access was blocked
system.cpu0.icache.blocked::no_mshrs                0                       # number of cycles access was blocked
system.cpu0.icache.blocked::no_targets              0                       # number of cycles access was blocked
system.cpu0.icache.avg_blocked_cycles::no_mshrs          nan                       # average number of cycles each access was blocked
system.cpu0.icache.avg_blocked_cycles::no_targets          nan                       # average number of cycles each access was blocked
system.cpu0.icache.writebacks::writebacks        17629                       # number of writebacks
system.cpu0.icache.writebacks::total            17629                       # number of writebacks
system.cpu0.icache.ReadReq_mshr_misses::switch_cpus0.inst        17755                       # number of ReadReq MSHR misses
system.cpu0.icache.ReadReq_mshr_misses::total        17755                       # number of ReadReq MSHR misses
system.cpu0.icache.demand_mshr_misses::switch_cpus0.inst        17755                       # number of demand (read+write) MSHR misses
system.cpu0.icache.demand_mshr_misses::total        17755                       # number of demand (read+write) MSHR misses
system.cpu0.icache.overall_mshr_misses::switch_cpus0.inst        17755                       # number of overall MSHR misses
system.cpu0.icache.overall_mshr_misses::total        17755                       # number of overall MSHR misses
system.cpu0.icache.ReadReq_mshr_miss_latency::switch_cpus0.inst    456055005                       # number of ReadReq MSHR miss cycles
system.cpu0.icache.ReadReq_mshr_miss_latency::total    456055005                       # number of ReadReq MSHR miss cycles
system.cpu0.icache.demand_mshr_miss_latency::switch_cpus0.inst    456055005                       # number of demand (read+write) MSHR miss cycles
system.cpu0.icache.demand_mshr_miss_latency::total    456055005                       # number of demand (read+write) MSHR miss cycles
system.cpu0.icache.overall_mshr_miss_latency::switch_cpus0.inst    456055005                       # number of overall MSHR miss cycles
system.cpu0.icache.overall_mshr_miss_latency::total    456055005                       # number of overall MSHR miss cycles
system.cpu0.icache.ReadReq_mshr_miss_rate::switch_cpus0.inst     0.050999                       # mshr miss rate for ReadReq accesses
system.cpu0.icache.ReadReq_mshr_miss_rate::total     0.050998                       # mshr miss rate for ReadReq accesses
system.cpu0.icache.demand_mshr_miss_rate::switch_cpus0.inst     0.050999                       # mshr miss rate for demand accesses
system.cpu0.icache.demand_mshr_miss_rate::total     0.050998                       # mshr miss rate for demand accesses
system.cpu0.icache.overall_mshr_miss_rate::switch_cpus0.inst     0.050999                       # mshr miss rate for overall accesses
system.cpu0.icache.overall_mshr_miss_rate::total     0.050998                       # mshr miss rate for overall accesses
system.cpu0.icache.ReadReq_avg_mshr_miss_latency::switch_cpus0.inst 25686.004224                       # average ReadReq mshr miss latency
system.cpu0.icache.ReadReq_avg_mshr_miss_latency::total 25686.004224                       # average ReadReq mshr miss latency
system.cpu0.icache.demand_avg_mshr_miss_latency::switch_cpus0.inst 25686.004224                       # average overall mshr miss latency
system.cpu0.icache.demand_avg_mshr_miss_latency::total 25686.004224                       # average overall mshr miss latency
system.cpu0.icache.overall_avg_mshr_miss_latency::switch_cpus0.inst 25686.004224                       # average overall mshr miss latency
system.cpu0.icache.overall_avg_mshr_miss_latency::total 25686.004224                       # average overall mshr miss latency
system.cpu0.itb_walker_cache.tags.pwrStateResidencyTicks::UNDEFINED 1425278640408                       # Cumulative time (in ticks) in various power states
system.cpu0.itb_walker_cache.tags.replacements            0                       # number of replacements
system.cpu0.itb_walker_cache.tags.tagsinuse            0                       # Cycle average of tags in use
system.cpu0.itb_walker_cache.tags.total_refs            0                       # Total number of references to valid blocks.
system.cpu0.itb_walker_cache.tags.sampled_refs            0                       # Sample count of references to valid blocks.
system.cpu0.itb_walker_cache.tags.avg_refs          nan                       # Average number of references to valid blocks.
system.cpu0.itb_walker_cache.tags.warmup_cycle            0                       # Cycle when the warmup percentage was hit.
system.cpu0.itb_walker_cache.tags.tag_accesses            0                       # Number of tag accesses
system.cpu0.itb_walker_cache.tags.data_accesses            0                       # Number of data accesses
system.cpu0.itb_walker_cache.pwrStateResidencyTicks::UNDEFINED 1425278640408                       # Cumulative time (in ticks) in various power states
system.cpu0.itb_walker_cache.blocked_cycles::no_mshrs            0                       # number of cycles access was blocked
system.cpu0.itb_walker_cache.blocked_cycles::no_targets            0                       # number of cycles access was blocked
system.cpu0.itb_walker_cache.blocked::no_mshrs            0                       # number of cycles access was blocked
system.cpu0.itb_walker_cache.blocked::no_targets            0                       # number of cycles access was blocked
system.cpu0.itb_walker_cache.avg_blocked_cycles::no_mshrs          nan                       # average number of cycles each access was blocked
system.cpu0.itb_walker_cache.avg_blocked_cycles::no_targets          nan                       # average number of cycles each access was blocked
system.cpu1.dtb.walker.pwrStateResidencyTicks::UNDEFINED 1425278640408                       # Cumulative time (in ticks) in various power states
[...]
system.switch_cpus2.op_class_0::SimdCvt             0      0.00%     74.16% # Class of committed instruction
system.switch_cpus2.op_class_0::SimdMisc            0      0.00%     74.16% # Class of committed instruction
system.switch_cpus2.op_class_0::SimdMult            0      0.00%     74.16% # Class of committed instruction
system.switch_cpus2.op_class_0::SimdMultAcc            0      0.00%     74.16% # Class of committed instruction
system.switch_cpus2.op_class_0::SimdShift            0      0.00%     74.16% # Class of committed instruction
system.switch_cpus2.op_class_0::SimdShiftAcc            0      0.00%     74.16% # Class of committed instruction
system.switch_cpus2.op_class_0::SimdSqrt            0      0.00%     74.16% # Class of committed instruction
system.switch_cpus2.op_class_0::SimdFloatAdd            0      0.00%     74.16% # Class of committed instruction
system.switch_cpus2.op_class_0::SimdFloatAlu            0      0.00%     74.16% # Class of committed instruction
system.switch_cpus2.op_class_0::SimdFloatCmp            0      0.00%     74.16% # Class of committed instruction
system.switch_cpus2.op_class_0::SimdFloatCvt            0      0.00%     74.16% # Class of committed instruction
system.switch_cpus2.op_class_0::SimdFloatDiv            0      0.00%     74.16% # Class of committed instruction
system.switch_cpus2.op_class_0::SimdFloatMisc            0      0.00%     74.16% # Class of committed instruction
system.switch_cpus2.op_class_0::SimdFloatMult            0      0.00%     74.16% # Class of committed instruction
system.switch_cpus2.op_class_0::SimdFloatMultAcc            0      0.00%     74.16% # Class of committed instruction
system.switch_cpus2.op_class_0::SimdFloatSqrt            0      0.00%     74.16% # Class of committed instruction
system.switch_cpus2.op_class_0::MemRead      19440291     10.64%     84.80% # Class of committed instruction
system.switch_cpus2.op_class_0::MemWrite     11843012      6.48%     91.28% # Class of committed instruction
system.switch_cpus2.op_class_0::FloatMemRead     13671634      7.48%     98.77% # Class of committed instruction
system.switch_cpus2.op_class_0::FloatMemWrite      2251838      1.23%    100.00% # Class of committed instruction
system.switch_cpus2.op_class_0::IprAccess            0      0.00%    100.00% # Class of committed instruction
system.switch_cpus2.op_class_0::InstPrefetch            0      0.00%    100.00% # Class of committed instruction
system.switch_cpus2.op_class_0::total       182670462                       # Class of committed instruction
system.switch_cpus2.tickCycles              309938304                       # Number of cycles that the object actually ticked
system.switch_cpus2.idleCycles               68766347                       # Total number of cycles that the object has spent stopped
system.switch_cpus3.branchPred.lookups            204                       # Number of BP lookups
system.switch_cpus3.branchPred.condPredicted          204                       # Number of conditional branches predicted
system.switch_cpus3.branchPred.condIncorrect          102                       # Number of conditional branches incorrect
system.switch_cpus3.branchPred.BTBLookups           92                       # Number of BTB lookups
system.switch_cpus3.branchPred.BTBHits              0                       # Number of BTB hits
system.switch_cpus3.branchPred.BTBCorrect            0                       # Number of correct BTB predictions (this stat may not work properly.
system.switch_cpus3.branchPred.BTBHitPct     0.000000                       # BTB Hit Percentage
system.switch_cpus3.branchPred.usedRAS              0                       # Number of times the RAS was used to get a target.
system.switch_cpus3.branchPred.RASInCorrect            0                       # Number of incorrect RAS predictions.
system.switch_cpus3.branchPred.indirectLookups           92                       # Number of indirect predictor lookups.
system.switch_cpus3.branchPred.indirectHits           88                       # Number of indirect target hits.
system.switch_cpus3.branchPred.indirectMisses            4                       # Number of indirect misses.
system.switch_cpus3.branchPredindirectMispredicted           92                       # Number of mispredicted indirect branches.
system.switch_cpus3.dtb.walker.pwrStateResidencyTicks::UNDEFINED 315460980114                       # Cumulative time (in ticks) in various power states
system.switch_cpus3.itb.walker.pwrStateResidencyTicks::UNDEFINED 315460980114                       # Cumulative time (in ticks) in various power states
system.switch_cpus3.pwrStateResidencyTicks::ON 315460980114                       # Cumulative time (in ticks) in various power states
system.switch_cpus3.numCycles               378704641                       # number of cpu cycles simulated
system.switch_cpus3.numWorkItemsStarted             0                       # number of work items this cpu started
system.switch_cpus3.numWorkItemsCompleted            0                       # number of work items this cpu completed
system.switch_cpus3.committedInsts           99999742                       # Number of instructions committed
system.switch_cpus3.committedOps            182805320                       # Number of ops (including micro ops) committed
system.switch_cpus3.discardedOps             36404518                       # Number of ops (including micro ops) which were discarded before commit
system.switch_cpus3.numFetchSuspends                0                       # Number of times Execute suspended instruction fetching
system.switch_cpus3.cpi                      3.787056                       # CPI: cycles per instruction
system.switch_cpus3.ipc                      0.264057                       # IPC: instructions per cycle
system.switch_cpus3.op_class_0::No_OpClass       960995      0.53%      0.53% # Class of committed instruction
system.switch_cpus3.op_class_0::IntAlu      111734705     61.12%     61.65% # Class of committed instruction
system.switch_cpus3.op_class_0::IntMult         27184      0.01%     61.66% # Class of committed instruction
system.switch_cpus3.op_class_0::IntDiv           1757      0.00%     61.66% # Class of committed instruction
system.switch_cpus3.op_class_0::FloatAdd     22834969     12.49%     74.16% # Class of committed instruction
system.switch_cpus3.op_class_0::FloatCmp            0      0.00%     74.16% # Class of committed instruction
system.switch_cpus3.op_class_0::FloatCvt            0      0.00%     74.16% # Class of committed instruction
system.switch_cpus3.op_class_0::FloatMult            0      0.00%     74.16% # Class of committed instruction
system.switch_cpus3.op_class_0::FloatMultAcc            0      0.00%     74.16% # Class of committed instruction
system.switch_cpus3.op_class_0::FloatDiv         3345      0.00%     74.16% # Class of committed instruction
system.switch_cpus3.op_class_0::FloatMisc            0      0.00%     74.16% # Class of committed instruction
system.switch_cpus3.op_class_0::FloatSqrt            0      0.00%     74.16% # Class of committed instruction
system.switch_cpus3.op_class_0::SimdAdd             0      0.00%     74.16% # Class of committed instruction
system.switch_cpus3.op_class_0::SimdAddAcc            0      0.00%     74.16% # Class of committed instruction
system.switch_cpus3.op_class_0::SimdAlu             0      0.00%     74.16% # Class of committed instruction
system.switch_cpus3.op_class_0::SimdCmp             0      0.00%     74.16% # Class of committed instruction
system.switch_cpus3.op_class_0::SimdCvt             0      0.00%     74.16% # Class of committed instruction
system.switch_cpus3.op_class_0::SimdMisc            0      0.00%     74.16% # Class of committed instruction
system.switch_cpus3.op_class_0::SimdMult            0      0.00%     74.16% # Class of committed instruction
system.switch_cpus3.op_class_0::SimdMultAcc            0      0.00%     74.16% # Class of committed instruction
system.switch_cpus3.op_class_0::SimdShift            0      0.00%     74.16% # Class of committed instruction
system.switch_cpus3.op_class_0::SimdShiftAcc            0      0.00%     74.16% # Class of committed instruction
system.switch_cpus3.op_class_0::SimdSqrt            0      0.00%     74.16% # Class of committed instruction
system.switch_cpus3.op_class_0::SimdFloatAdd            0      0.00%     74.16% # Class of committed instruction
system.switch_cpus3.op_class_0::SimdFloatAlu            0      0.00%     74.16% # Class of committed instruction
system.switch_cpus3.op_class_0::SimdFloatCmp            0      0.00%     74.16% # Class of committed instruction
system.switch_cpus3.op_class_0::SimdFloatCvt            0      0.00%     74.16% # Class of committed instruction
system.switch_cpus3.op_class_0::SimdFloatDiv            0      0.00%     74.16% # Class of committed instruction
system.switch_cpus3.op_class_0::SimdFloatMisc            0      0.00%     74.16% # Class of committed instruction
system.switch_cpus3.op_class_0::SimdFloatMult            0      0.00%     74.16% # Class of committed instruction
system.switch_cpus3.op_class_0::SimdFloatMultAcc            0      0.00%     74.16% # Class of committed instruction
system.switch_cpus3.op_class_0::SimdFloatSqrt            0      0.00%     74.16% # Class of committed instruction
system.switch_cpus3.op_class_0::MemRead      19455456     10.64%     84.80% # Class of committed instruction
system.switch_cpus3.op_class_0::MemWrite     11852338      6.48%     91.28% # Class of committed instruction
system.switch_cpus3.op_class_0::FloatMemRead     13681282      7.48%     98.77% # Class of committed instruction
system.switch_cpus3.op_class_0::FloatMemWrite      2253289      1.23%    100.00% # Class of committed instruction
system.switch_cpus3.op_class_0::IprAccess            0      0.00%    100.00% # Class of committed instruction
system.switch_cpus3.op_class_0::InstPrefetch            0      0.00%    100.00% # Class of committed instruction
system.switch_cpus3.op_class_0::total       182805320                       # Class of committed instruction
system.switch_cpus3.tickCycles              310174761                       # Number of cycles that the object actually ticked
system.switch_cpus3.idleCycles               68529880                       # Total number of cycles that the object has spent stopped
system.tol2bus.snoop_filter.tot_requests     35977529                       # Total number of requests made to the snoop filter.
system.tol2bus.snoop_filter.hit_single_requests     17988763                       # Number of requests hitting in the snoop filter with a single holder of the requested data.
system.tol2bus.snoop_filter.hit_multi_requests            0                       # Number of requests hitting in the snoop filter with multiple (>1) holders of the requested data.
system.tol2bus.snoop_filter.tot_snoops             29                       # Total number of snoops made to the snoop filter.
system.tol2bus.snoop_filter.hit_single_snoops           29                       # Number of snoops hitting in the snoop filter with a single holder of the requested data.
system.tol2bus.snoop_filter.hit_multi_snoops            0                       # Number of snoops hitting in the snoop filter with multiple (>1) holders of the requested data.
system.tol2bus.pwrStateResidencyTicks::UNDEFINED 315460980114                       # Cumulative time (in ticks) in various power states
system.tol2bus.trans_dist::ReadResp          16813159                       # Transaction distribution
system.tol2bus.trans_dist::WritebackDirty      2316228                       # Transaction distribution
system.tol2bus.trans_dist::WritebackClean      6488120                       # Transaction distribution
system.tol2bus.trans_dist::CleanEvict         9315842                       # Transaction distribution
system.tol2bus.trans_dist::ReadExReq          1175605                       # Transaction distribution
system.tol2bus.trans_dist::ReadExResp         1175605                       # Transaction distribution
system.tol2bus.trans_dist::ReadCleanReq       6488120                       # Transaction distribution
system.tol2bus.trans_dist::ReadSharedReq     10325041                       # Transaction distribution
system.tol2bus.pkt_count_system.cpu0.icache.mem_side::system.l2.cpu_side      4867035                       # Packet count per connected master and slave (bytes)
system.tol2bus.pkt_count_system.cpu0.dcache.mem_side::system.l2.cpu_side      8627223                       # Packet count per connected master and slave (bytes)
system.tol2bus.pkt_count_system.cpu1.icache.mem_side::system.l2.cpu_side      4865685                       # Packet count per connected master and slave (bytes)
system.tol2bus.pkt_count_system.cpu1.dcache.mem_side::system.l2.cpu_side      8627254                       # Packet count per connected master and slave (bytes)
system.tol2bus.pkt_count_system.cpu2.icache.mem_side::system.l2.cpu_side      4864857                       # Packet count per connected master and slave (bytes)
system.tol2bus.pkt_count_system.cpu2.dcache.mem_side::system.l2.cpu_side      8620267                       # Packet count per connected master and slave (bytes)
system.tol2bus.pkt_count_system.cpu3.icache.mem_side::system.l2.cpu_side      4866783                       # Packet count per connected master and slave (bytes)
system.tol2bus.pkt_count_system.cpu3.dcache.mem_side::system.l2.cpu_side      8627189                       # Packet count per connected master and slave (bytes)
system.tol2bus.pkt_count::total              53966293                       # Packet count per connected master and slave (bytes)
system.tol2bus.pkt_size_system.cpu0.icache.mem_side::system.l2.cpu_side    207660160                       # Cumulative packet size per connected master and slave (bytes)
system.tol2bus.pkt_size_system.cpu0.dcache.mem_side::system.l2.cpu_side    220699072                       # Cumulative packet size per connected master and slave (bytes)
system.tol2bus.pkt_size_system.cpu1.icache.mem_side::system.l2.cpu_side    207602560                       # Cumulative packet size per connected master and slave (bytes)
system.tol2bus.pkt_size_system.cpu1.dcache.mem_side::system.l2.cpu_side    220793408                       # Cumulative packet size per connected master and slave (bytes)
system.tol2bus.pkt_size_system.cpu2.icache.mem_side::system.l2.cpu_side    207567232                       # Cumulative packet size per connected master and slave (bytes)
system.tol2bus.pkt_size_system.cpu2.dcache.mem_side::system.l2.cpu_side    220554880                       # Cumulative packet size per connected master and slave (bytes)
system.tol2bus.pkt_size_system.cpu3.icache.mem_side::system.l2.cpu_side    207649408                       # Cumulative packet size per connected master and slave (bytes)
system.tol2bus.pkt_size_system.cpu3.dcache.mem_side::system.l2.cpu_side    220816192                       # Cumulative packet size per connected master and slave (bytes)
system.tol2bus.pkt_size::total             1713342912                       # Cumulative packet size per connected master and slave (bytes)
system.tol2bus.snoops                          131427                       # Total snoops (count)
system.tol2bus.snoopTraffic                   1416256                       # Total snoop traffic (bytes)
system.tol2bus.snoop_fanout::samples         18120193                       # Request fanout histogram
system.tol2bus.snoop_fanout::mean            0.000002                       # Request fanout histogram
system.tol2bus.snoop_fanout::stdev           0.001265                       # Request fanout histogram
system.tol2bus.snoop_fanout::underflows             0      0.00%      0.00% # Request fanout histogram
system.tol2bus.snoop_fanout::0               18120164    100.00%    100.00% # Request fanout histogram
system.tol2bus.snoop_fanout::1                     29      0.00%    100.00% # Request fanout histogram
system.tol2bus.snoop_fanout::2                      0      0.00%    100.00% # Request fanout histogram
system.tol2bus.snoop_fanout::3                      0      0.00%    100.00% # Request fanout histogram
system.tol2bus.snoop_fanout::4                      0      0.00%    100.00% # Request fanout histogram
system.tol2bus.snoop_fanout::5                      0      0.00%    100.00% # Request fanout histogram
system.tol2bus.snoop_fanout::6                      0      0.00%    100.00% # Request fanout histogram
system.tol2bus.snoop_fanout::7                      0      0.00%    100.00% # Request fanout histogram
system.tol2bus.snoop_fanout::8                      0      0.00%    100.00% # Request fanout histogram
system.tol2bus.snoop_fanout::9                      0      0.00%    100.00% # Request fanout histogram
system.tol2bus.snoop_fanout::10                     0      0.00%    100.00% # Request fanout histogram
system.tol2bus.snoop_fanout::11                     0      0.00%    100.00% # Request fanout histogram
system.tol2bus.snoop_fanout::12                     0      0.00%    100.00% # Request fanout histogram
system.tol2bus.snoop_fanout::13                     0      0.00%    100.00% # Request fanout histogram
system.tol2bus.snoop_fanout::14                     0      0.00%    100.00% # Request fanout histogram
system.tol2bus.snoop_fanout::15                     0      0.00%    100.00% # Request fanout histogram
system.tol2bus.snoop_fanout::16                     0      0.00%    100.00% # Request fanout histogram
system.tol2bus.snoop_fanout::overflows              0      0.00%    100.00% # Request fanout histogram
system.tol2bus.snoop_fanout::min_value              0                       # Request fanout histogram
system.tol2bus.snoop_fanout::max_value              1                       # Request fanout histogram
system.tol2bus.snoop_fanout::total           18120193                       # Request fanout histogram
system.tol2bus.reqLayer0.occupancy        44600458511                       # Layer occupancy (ticks)
system.tol2bus.reqLayer0.utilization             14.1                       # Layer utilization (%)
system.tol2bus.respLayer0.occupancy        4056132854                       # Layer occupancy (ticks)
system.tol2bus.respLayer0.utilization             1.3                       # Layer utilization (%)
system.tol2bus.respLayer1.occupancy        7189323765                       # Layer occupancy (ticks)
system.tol2bus.respLayer1.utilization             2.3                       # Layer utilization (%)
system.tol2bus.respLayer4.occupancy        4055235429                       # Layer occupancy (ticks)
system.tol2bus.respLayer4.utilization             1.3                       # Layer utilization (%)
system.tol2bus.respLayer5.occupancy        7189208960                       # Layer occupancy (ticks)
system.tol2bus.respLayer5.utilization             2.3                       # Layer utilization (%)
system.tol2bus.respLayer8.occupancy        4054048206                       # Layer occupancy (ticks)
system.tol2bus.respLayer8.utilization             1.3                       # Layer utilization (%)
system.tol2bus.respLayer9.occupancy        7183199117                       # Layer occupancy (ticks)
system.tol2bus.respLayer9.utilization             2.3                       # Layer utilization (%)
system.tol2bus.respLayer12.occupancy       4055798155                       # Layer occupancy (ticks)
system.tol2bus.respLayer12.utilization            1.3                       # Layer utilization (%)
system.tol2bus.respLayer13.occupancy       7189135689                       # Layer occupancy (ticks)
system.tol2bus.respLayer13.utilization            2.3                       # Layer utilization (%)

---------- End Simulation Statistics   ----------
