
---------- Begin Simulation Statistics ----------
sim_seconds                                  0.003852                       # Number of seconds simulated
sim_ticks                                  3851831920                       # Number of ticks simulated
final_tick                               1425819643920                       # Number of ticks from beginning of simulation (restored from checkpoints and never reset)
sim_freq                                 1000000000000                       # Frequency of simulated ticks
host_inst_rate                                 521593                       # Simulator instruction rate (inst/s)
host_op_rate                                   932897                       # Simulator op (including micro ops) rate (op/s)
host_tick_rate                              669639299                       # Simulator tick rate (ticks/s)
host_mem_usage                                3428632                       # Number of bytes of host memory used
host_seconds                                     5.75                       # Real time elapsed on the host
sim_insts                                     3000235                       # Number of instructions simulated
sim_ops                                       5366097                       # Number of ops (including micro ops) simulated
system.voltage_domain.voltage                       1                       # Voltage in Volts
system.clk_domain.clock                          1000                       # Clock period in ticks
system.mem_ctrls.pwrStateResidencyTicks::UNDEFINED 1425819643920                       # Cumulative time (in ticks) in various power states
system.mem_ctrls.bytes_read::cpu0.inst            128                       # Number of bytes read from this memory
system.mem_ctrls.bytes_read::cpu0.data            320                       # Number of bytes read from this memory
system.mem_ctrls.bytes_read::cpu1.inst            128                       # Number of bytes read from this memory
system.mem_ctrls.bytes_read::cpu1.data            320                       # Number of bytes read from this memory
system.mem_ctrls.bytes_read::cpu2.inst            128                       # Number of bytes read from this memory
system.mem_ctrls.bytes_read::cpu2.data            320                       # Number of bytes read from this memory
system.mem_ctrls.bytes_read::switch_cpus0.inst        51456                       # Number of bytes read from this memory
system.mem_ctrls.bytes_read::switch_cpus0.data       174592                       # Number of bytes read from this memory
system.mem_ctrls.bytes_read::switch_cpus1.inst        51648                       # Number of bytes read from this memory
system.mem_ctrls.bytes_read::switch_cpus1.data       166400                       # Number of bytes read from this memory
system.mem_ctrls.bytes_read::switch_cpus2.inst        51648                       # Number of bytes read from this memory
system.mem_ctrls.bytes_read::switch_cpus2.data       172416                       # Number of bytes read from this memory
system.mem_ctrls.bytes_read::total             669504                       # Number of bytes read from this memory
system.mem_ctrls.bytes_inst_read::cpu0.inst          128                       # Number of instructions bytes read from this memory
system.mem_ctrls.bytes_inst_read::cpu1.inst          128                       # Number of instructions bytes read from this memory
system.mem_ctrls.bytes_inst_read::cpu2.inst          128                       # Number of instructions bytes read from this memory
system.mem_ctrls.bytes_inst_read::switch_cpus0.inst        51456                       # Number of instructions bytes read from this memory
system.mem_ctrls.bytes_inst_read::switch_cpus1.inst        51648                       # Number of instructions bytes read from this memory
system.mem_ctrls.bytes_inst_read::switch_cpus2.inst        51648                       # Number of instructions bytes read from this memory
system.mem_ctrls.bytes_inst_read::total        155136                       # Number of instructions bytes read from this memory
system.mem_ctrls.bytes_written::writebacks        52544                       # Number of bytes written to this memory
system.mem_ctrls.bytes_written::total           52544                       # Number of bytes written to this memory
system.mem_ctrls.num_reads::cpu0.inst               2                       # Number of read requests responded to by this memory
system.mem_ctrls.num_reads::cpu0.data               5                       # Number of read requests responded to by this memory
system.mem_ctrls.num_reads::cpu1.inst               2                       # Number of read requests responded to by this memory
system.mem_ctrls.num_reads::cpu1.data               5                       # Number of read requests responded to by this memory
system.mem_ctrls.num_reads::cpu2.inst               2                       # Number of read requests responded to by this memory
system.mem_ctrls.num_reads::cpu2.data               5                       # Number of read requests responded to by this memory
system.mem_ctrls.num_reads::switch_cpus0.inst          804                       # Number of read requests responded to by this memory
system.mem_ctrls.num_reads::switch_cpus0.data         2728                       # Number of read requests responded to by this memory
system.mem_ctrls.num_reads::switch_cpus1.inst          807                       # Number of read requests responded to by this memory
system.mem_ctrls.num_reads::switch_cpus1.data         2600                       # Number of read requests responded to by this memory
system.mem_ctrls.num_reads::switch_cpus2.inst          807                       # Number of read requests responded to by this memory
system.mem_ctrls.num_reads::switch_cpus2.data         2694                       # Number of read requests responded to by this memory
system.mem_ctrls.num_reads::total               10461                       # Number of read requests responded to by this memory
system.mem_ctrls.num_writes::writebacks           821                       # Number of write requests responded to by this memory
system.mem_ctrls.num_writes::total                821                       # Number of write requests responded to by this memory
system.mem_ctrls.bw_read::cpu0.inst             33231                       # Total read bandwidth from this memory (bytes/s)
system.mem_ctrls.bw_read::cpu0.data             83077                       # Total read bandwidth from this memory (bytes/s)
system.mem_ctrls.bw_read::cpu1.inst             33231                       # Total read bandwidth from this memory (bytes/s)
system.mem_ctrls.bw_read::cpu1.data             83077                       # Total read bandwidth from this memory (bytes/s)
system.mem_ctrls.bw_read::cpu2.inst             33231                       # Total read bandwidth from this memory (bytes/s)
system.mem_ctrls.bw_read::cpu2.data             83077                       # Total read bandwidth from this memory (bytes/s)
system.mem_ctrls.bw_read::switch_cpus0.inst     13358838                       # Total read bandwidth from this memory (bytes/s)
system.mem_ctrls.bw_read::switch_cpus0.data     45327004                       # Total read bandwidth from this memory (bytes/s)
system.mem_ctrls.bw_read::switch_cpus1.inst     13408685                       # Total read bandwidth from this memory (bytes/s)
system.mem_ctrls.bw_read::switch_cpus1.data     43200224                       # Total read bandwidth from this memory (bytes/s)
system.mem_ctrls.bw_read::switch_cpus2.inst     13408685                       # Total read bandwidth from this memory (bytes/s)
system.mem_ctrls.bw_read::switch_cpus2.data     44762078                       # Total read bandwidth from this memory (bytes/s)
system.mem_ctrls.bw_read::total             173814438                       # Total read bandwidth from this memory (bytes/s)
system.mem_ctrls.bw_inst_read::cpu0.inst        33231                       # Instruction read bandwidth from this memory (bytes/s)
system.mem_ctrls.bw_inst_read::cpu1.inst        33231                       # Instruction read bandwidth from this memory (bytes/s)
system.mem_ctrls.bw_inst_read::cpu2.inst        33231                       # Instruction read bandwidth from this memory (bytes/s)
system.mem_ctrls.bw_inst_read::switch_cpus0.inst     13358838                       # Instruction read bandwidth from this memory (bytes/s)
system.mem_ctrls.bw_inst_read::switch_cpus1.inst     13408685                       # Instruction read bandwidth from this memory (bytes/s)
system.mem_ctrls.bw_inst_read::switch_cpus2.inst     13408685                       # Instruction read bandwidth from this memory (bytes/s)
system.mem_ctrls.bw_inst_read::total         40275901                       # Instruction read bandwidth from this memory (bytes/s)
system.mem_ctrls.bw_write::writebacks        13641301                       # Write bandwidth from this memory (bytes/s)
system.mem_ctrls.bw_write::total             13641301                       # Write bandwidth from this memory (bytes/s)
system.mem_ctrls.bw_total::writebacks        13641301                       # Total bandwidth to/from this memory (bytes/s)
system.mem_ctrls.bw_total::cpu0.inst            33231                       # Total bandwidth to/from this memory (bytes/s)
system.mem_ctrls.bw_total::cpu0.data            83077                       # Total bandwidth to/from this memory (bytes/s)
system.mem_ctrls.bw_total::cpu1.inst            33231                       # Total bandwidth to/from this memory (bytes/s)
system.mem_ctrls.bw_total::cpu1.data            83077                       # Total bandwidth to/from this memory (bytes/s)
system.mem_ctrls.bw_total::cpu2.inst            33231                       # Total bandwidth to/from this memory (bytes/s)
system.mem_ctrls.bw_total::cpu2.data            83077                       # Total bandwidth to/from this memory (bytes/s)
system.mem_ctrls.bw_total::switch_cpus0.inst     13358838                       # Total bandwidth to/from this memory (bytes/s)
system.mem_ctrls.bw_total::switch_cpus0.data     45327004                       # Total bandwidth to/from this memory (bytes/s)
system.mem_ctrls.bw_total::switch_cpus1.inst     13408685                       # Total bandwidth to/from this memory (bytes/s)
system.mem_ctrls.bw_total::switch_cpus1.data     43200224                       # Total bandwidth to/from this memory (bytes/s)
system.mem_ctrls.bw_total::switch_cpus2.inst     13408685                       # Total bandwidth to/from this memory (bytes/s)
system.mem_ctrls.bw_total::switch_cpus2.data     44762078                       # Total bandwidth to/from this memory (bytes/s)
system.mem_ctrls.bw_total::total            187455739                       # Total bandwidth to/from this memory (bytes/s)
system.mem_ctrls.readReqs                       10440                       # Number of read requests accepted
system.mem_ctrls.writeReqs                        821                       # Number of write requests accepted
system.mem_ctrls.readBursts                     10440                       # Number of DRAM read bursts, including those serviced by the write queue
system.mem_ctrls.writeBursts                      821                       # Number of DRAM write bursts, including those merged in the write queue
system.mem_ctrls.bytesReadDRAM                 648640                       # Total number of bytes read from DRAM
system.mem_ctrls.bytesReadWrQ                   19520                       # Total number of bytes read from write queue
system.mem_ctrls.bytesWritten                   46080                       # Total number of bytes written to DRAM
system.mem_ctrls.bytesReadSys                  668160                       # Total read bytes from the system interface side
system.mem_ctrls.bytesWrittenSys                52544                       # Total written bytes from the system interface side
system.mem_ctrls.servicedByWrQ                    305                       # Number of DRAM read bursts serviced by the write queue
system.mem_ctrls.mergedWrBursts                    71                       # Number of DRAM write bursts merged with an existing one
system.mem_ctrls.neitherReadNorWriteReqs            0                       # Number of requests that are neither read nor write
system.mem_ctrls.perBankRdBursts::0              1065                       # Per bank write bursts
system.mem_ctrls.perBankRdBursts::1              1657                       # Per bank write bursts
system.mem_ctrls.perBankRdBursts::2               536                       # Per bank write bursts
system.mem_ctrls.perBankRdBursts::3               194                       # Per bank write bursts
system.mem_ctrls.perBankRdBursts::4               267                       # Per bank write bursts
system.mem_ctrls.perBankRdBursts::5               870                       # Per bank write bursts
system.mem_ctrls.perBankRdBursts::6               842                       # Per bank write bursts
system.mem_ctrls.perBankRdBursts::7               641                       # Per bank write bursts
system.mem_ctrls.perBankRdBursts::8               716                       # Per bank write bursts
system.mem_ctrls.perBankRdBursts::9               605                       # Per bank write bursts
system.mem_ctrls.perBankRdBursts::10              193                       # Per bank write bursts
system.mem_ctrls.perBankRdBursts::11              257                       # Per bank write bursts
system.mem_ctrls.perBankRdBursts::12              236                       # Per bank write bursts
system.mem_ctrls.perBankRdBursts::13              826                       # Per bank write bursts
system.mem_ctrls.perBankRdBursts::14              562                       # Per bank write bursts
system.mem_ctrls.perBankRdBursts::15              668                       # Per bank write bursts
system.mem_ctrls.perBankWrBursts::0               210                       # Per bank write bursts
system.mem_ctrls.perBankWrBursts::1               205                       # Per bank write bursts
system.mem_ctrls.perBankWrBursts::2                 1                       # Per bank write bursts
system.mem_ctrls.perBankWrBursts::3                 2                       # Per bank write bursts
system.mem_ctrls.perBankWrBursts::4                24                       # Per bank write bursts
system.mem_ctrls.perBankWrBursts::5                66                       # Per bank write bursts
system.mem_ctrls.perBankWrBursts::6                17                       # Per bank write bursts
system.mem_ctrls.perBankWrBursts::7                 0                       # Per bank write bursts
system.mem_ctrls.perBankWrBursts::8                 0                       # Per bank write bursts
system.mem_ctrls.perBankWrBursts::9                 0                       # Per bank write bursts
system.mem_ctrls.perBankWrBursts::10                0                       # Per bank write bursts
system.mem_ctrls.perBankWrBursts::11                6                       # Per bank write bursts
system.mem_ctrls.perBankWrBursts::12                8                       # Per bank write bursts
system.mem_ctrls.perBankWrBursts::13               42                       # Per bank write bursts
system.mem_ctrls.perBankWrBursts::14               17                       # Per bank write bursts
system.mem_ctrls.perBankWrBursts::15              122                       # Per bank write bursts
system.mem_ctrls.numRdRetry                         0                       # Number of times read queue was full causing retry
system.mem_ctrls.numWrRetry                         0                       # Number of times write queue was full causing retry
system.mem_ctrls.totGap                    3851577919                       # Total gap between requests
system.mem_ctrls.readPktSize::0                     0                       # Read request sizes (log2)
system.mem_ctrls.readPktSize::1                     0                       # Read request sizes (log2)
system.mem_ctrls.readPktSize::2                     0                       # Read request sizes (log2)
system.mem_ctrls.readPktSize::3                     0                       # Read request sizes (log2)
system.mem_ctrls.readPktSize::4                     0                       # Read request sizes (log2)
system.mem_ctrls.readPktSize::5                     0                       # Read request sizes (log2)
system.mem_ctrls.readPktSize::6                 10440                       # Read request sizes (log2)
system.mem_ctrls.writePktSize::0                    0                       # Write request sizes (log2)
system.mem_ctrls.writePktSize::1                    0                       # Write request sizes (log2)
system.mem_ctrls.writePktSize::2                    0                       # Write request sizes (log2)
system.mem_ctrls.writePktSize::3                    0                       # Write request sizes (log2)
system.mem_ctrls.writePktSize::4                    0                       # Write request sizes (log2)
system.mem_ctrls.writePktSize::5                    0                       # Write request sizes (log2)
system.mem_ctrls.writePktSize::6                  821                       # Write request sizes (log2)
system.mem_ctrls.rdQLenPdf::0                    7438                       # What read queue length does an incoming req see
system.mem_ctrls.rdQLenPdf::1                    2321                       # What read queue length does an incoming req see
system.mem_ctrls.rdQLenPdf::2                     376                       # What read queue length does an incoming req see
system.mem_ctrls.rdQLenPdf::3                       0                       # What read queue length does an incoming req see
system.mem_ctrls.rdQLenPdf::4                       0                       # What read queue length does an incoming req see
system.mem_ctrls.rdQLenPdf::5                       0                       # What read queue length does an incoming req see
system.mem_ctrls.rdQLenPdf::6                       0                       # What read queue length does an incoming req see
system.mem_ctrls.rdQLenPdf::7                       0                       # What read queue length does an incoming req see
system.mem_ctrls.rdQLenPdf::8                       0                       # What read queue length does an incoming req see
system.mem_ctrls.rdQLenPdf::9                       0                       # What read queue length does an incoming req see
system.mem_ctrls.rdQLenPdf::10                      0                       # What read queue length does an incoming req see
system.mem_ctrls.rdQLenPdf::11                      0                       # What read queue length does an incoming req see
system.mem_ctrls.rdQLenPdf::12                      0                       # What read queue length does an incoming req see
system.mem_ctrls.rdQLenPdf::13                      0                       # What read queue length does an incoming req see
system.mem_ctrls.rdQLenPdf::14                      0                       # What read queue length does an incoming req see
system.mem_ctrls.rdQLenPdf::15                      0                       # What read queue length does an incoming req see
system.mem_ctrls.rdQLenPdf::16                      0                       # What read queue length does an incoming req see
system.mem_ctrls.rdQLenPdf::17                      0                       # What read queue length does an incoming req see
system.mem_ctrls.rdQLenPdf::18                      0                       # What read queue length does an incoming req see
system.mem_ctrls.rdQLenPdf::19                      0                       # What read queue length does an incoming req see
system.mem_ctrls.rdQLenPdf::20                      0                       # What read queue length does an incoming req see
system.mem_ctrls.rdQLenPdf::21                      0                       # What read queue length does an incoming req see
system.mem_ctrls.rdQLenPdf::22                      0                       # What read queue length does an incoming req see
system.mem_ctrls.rdQLenPdf::23                      0                       # What read queue length does an incoming req see
system.mem_ctrls.rdQLenPdf::24                      0                       # What read queue length does an incoming req see
system.mem_ctrls.rdQLenPdf::25                      0                       # What read queue length does an incoming req see
system.mem_ctrls.rdQLenPdf::26                      0                       # What read queue length does an incoming req see
system.mem_ctrls.rdQLenPdf::27                      0                       # What read queue length does an incoming req see
system.mem_ctrls.rdQLenPdf::28                      0                       # What read queue length does an incoming req see
system.mem_ctrls.rdQLenPdf::29                      0                       # What read queue length does an incoming req see
system.mem_ctrls.rdQLenPdf::30                      0                       # What read queue length does an incoming req see
system.mem_ctrls.rdQLenPdf::31                      0                       # What read queue length does an incoming req see
system.mem_ctrls.wrQLenPdf::0                       1                       # What write queue length does an incoming req see
system.mem_ctrls.wrQLenPdf::1                       1                       # What write queue length does an incoming req see
system.mem_ctrls.wrQLenPdf::2                       1                       # What write queue length does an incoming req see
system.mem_ctrls.wrQLenPdf::3                       1                       # What write queue length does an incoming req see
system.mem_ctrls.wrQLenPdf::4                       1                       # What write queue length does an incoming req see
system.mem_ctrls.wrQLenPdf::5                       1                       # What write queue length does an incoming req see
system.mem_ctrls.wrQLenPdf::6                       1                       # What write queue length does an incoming req see
system.mem_ctrls.wrQLenPdf::7                       1                       # What write queue length does an incoming req see
system.mem_ctrls.wrQLenPdf::8                       1                       # What write queue length does an incoming req see
system.mem_ctrls.wrQLenPdf::9                       1                       # What write queue length does an incoming req see
system.mem_ctrls.wrQLenPdf::10                      1                       # What write queue length does an incoming req see
system.mem_ctrls.wrQLenPdf::11                      1                       # What write queue length does an incoming req see
system.mem_ctrls.wrQLenPdf::12                      1                       # What write queue length does an incoming req see
system.mem_ctrls.wrQLenPdf::13                      1                       # What write queue length does an incoming req see
system.mem_ctrls.wrQLenPdf::14                      1                       # What write queue length does an incoming req see
system.mem_ctrls.wrQLenPdf::15                     23                       # What write queue length does an incoming req see
system.mem_ctrls.wrQLenPdf::16                     26                       # What write queue length does an incoming req see
system.mem_ctrls.wrQLenPdf::17                     40                       # What write queue length does an incoming req see
system.mem_ctrls.wrQLenPdf::18                     43                       # What write queue length does an incoming req see
system.mem_ctrls.wrQLenPdf::19                     44                       # What write queue length does an incoming req see
system.mem_ctrls.wrQLenPdf::20                     43                       # What write queue length does an incoming req see
system.mem_ctrls.wrQLenPdf::21                     44                       # What write queue length does an incoming req see
system.mem_ctrls.wrQLenPdf::22                     43                       # What write queue length does an incoming req see
system.mem_ctrls.wrQLenPdf::23                     43                       # What write queue length does an incoming req see
system.mem_ctrls.wrQLenPdf::24                     43                       # What write queue length does an incoming req see
system.mem_ctrls.wrQLenPdf::25                     44                       # What write queue length does an incoming req see
system.mem_ctrls.wrQLenPdf::26                     43                       # What write queue length does an incoming req see
system.mem_ctrls.wrQLenPdf::27                     44                       # What write queue length does an incoming req see
system.mem_ctrls.wrQLenPdf::28                     43                       # What write queue length does an incoming req see
system.mem_ctrls.wrQLenPdf::29                     43                       # What write queue length does an incoming req see
system.mem_ctrls.wrQLenPdf::30                     42                       # What write queue length does an incoming req see
system.mem_ctrls.wrQLenPdf::31                     42                       # What write queue length does an incoming req see
system.mem_ctrls.wrQLenPdf::32                     42                       # What write queue length does an incoming req see
system.mem_ctrls.wrQLenPdf::33                      0                       # What write queue length does an incoming req see
system.mem_ctrls.wrQLenPdf::34                      0                       # What write queue length does an incoming req see
system.mem_ctrls.wrQLenPdf::35                      0                       # What write queue length does an incoming req see
system.mem_ctrls.wrQLenPdf::36                      0                       # What write queue length does an incoming req see
system.mem_ctrls.wrQLenPdf::37                      0                       # What write queue length does an incoming req see
system.mem_ctrls.wrQLenPdf::38                      0                       # What write queue length does an incoming req see
system.mem_ctrls.wrQLenPdf::39                      0                       # What write queue length does an incoming req see
system.mem_ctrls.wrQLenPdf::40                      0                       # What write queue length does an incoming req see
system.mem_ctrls.wrQLenPdf::41                      0                       # What write queue length does an incoming req see
system.mem_ctrls.wrQLenPdf::42                      0                       # What write queue length does an incoming req see
system.mem_ctrls.wrQLenPdf::43                      0                       # What write queue length does an incoming req see
system.mem_ctrls.wrQLenPdf::44                      0                       # What write queue length does an incoming req see
system.mem_ctrls.wrQLenPdf::45                      0                       # What write queue length does an incoming req see
system.mem_ctrls.wrQLenPdf::46                      0                       # What write queue length does an incoming req see
system.mem_ctrls.wrQLenPdf::47                      0                       # What write queue length does an incoming req see
system.mem_ctrls.wrQLenPdf::48                      0                       # What write queue length does an incoming req see
system.mem_ctrls.wrQLenPdf::49                      0                       # What write queue length does an incoming req see
system.mem_ctrls.wrQLenPdf::50                      0                       # What write queue length does an incoming req see
system.mem_ctrls.wrQLenPdf::51                      0                       # What write queue length does an incoming req see
system.mem_ctrls.wrQLenPdf::52                      0                       # What write queue length does an incoming req see
system.mem_ctrls.wrQLenPdf::53                      0                       # What write queue length does an incoming req see
system.mem_ctrls.wrQLenPdf::54                      0                       # What write queue length does an incoming req see
system.mem_ctrls.wrQLenPdf::55                      0                       # What write queue length does an incoming req see
system.mem_ctrls.wrQLenPdf::56                      0                       # What write queue length does an incoming req see
system.mem_ctrls.wrQLenPdf::57                      0                       # What write queue length does an incoming req see
system.mem_ctrls.wrQLenPdf::58                      0                       # What write queue length does an incoming req see
system.mem_ctrls.wrQLenPdf::59                      0                       # What write queue length does an incoming req see
system.mem_ctrls.wrQLenPdf::60                      0                       # What write queue length does an incoming req see
system.mem_ctrls.wrQLenPdf::61                      0                       # What write queue length does an incoming req see
system.mem_ctrls.wrQLenPdf::62                      0                       # What write queue length does an incoming req see
system.mem_ctrls.wrQLenPdf::63                      0                       # What write queue length does an incoming req see
system.mem_ctrls.bytesPerActivate::samples         6434                       # Bytes accessed per row activation
system.mem_ctrls.bytesPerActivate::mean    107.946534                       # Bytes accessed per row activation
system.mem_ctrls.bytesPerActivate::gmean    86.356898                       # Bytes accessed per row activation
system.mem_ctrls.bytesPerActivate::stdev   113.880865                       # Bytes accessed per row activation
system.mem_ctrls.bytesPerActivate::0-127         4646     72.21%     72.21% # Bytes accessed per row activation
system.mem_ctrls.bytesPerActivate::128-255         1297     20.16%     92.37% # Bytes accessed per row activation
system.mem_ctrls.bytesPerActivate::256-383          264      4.10%     96.47% # Bytes accessed per row activation
system.mem_ctrls.bytesPerActivate::384-511          102      1.59%     98.06% # Bytes accessed per row activation
system.mem_ctrls.bytesPerActivate::512-639           44      0.68%     98.74% # Bytes accessed per row activation
system.mem_ctrls.bytesPerActivate::640-767           31      0.48%     99.22% # Bytes accessed per row activation
system.mem_ctrls.bytesPerActivate::768-895           11      0.17%     99.39% # Bytes accessed per row activation
system.mem_ctrls.bytesPerActivate::896-1023            8      0.12%     99.52% # Bytes accessed per row activation
system.mem_ctrls.bytesPerActivate::1024-1151           31      0.48%    100.00% # Bytes accessed per row activation
system.mem_ctrls.bytesPerActivate::total         6434                       # Bytes accessed per row activation
system.mem_ctrls.rdPerTurnAround::samples           42                       # Reads before turning the bus around for writes
system.mem_ctrls.rdPerTurnAround::mean     238.928571                       # Reads before turning the bus around for writes
system.mem_ctrls.rdPerTurnAround::gmean    115.870714                       # Reads before turning the bus around for writes
system.mem_ctrls.rdPerTurnAround::stdev    699.929940                       # Reads before turning the bus around for writes
system.mem_ctrls.rdPerTurnAround::0-255            37     88.10%     88.10% # Reads before turning the bus around for writes
system.mem_ctrls.rdPerTurnAround::256-511            3      7.14%     95.24% # Reads before turning the bus around for writes
system.mem_ctrls.rdPerTurnAround::512-767            1      2.38%     97.62% # Reads before turning the bus around for writes
system.mem_ctrls.rdPerTurnAround::4608-4863            1      2.38%    100.00% # Reads before turning the bus around for writes
system.mem_ctrls.rdPerTurnAround::total            42                       # Reads before turning the bus around for writes
system.mem_ctrls.wrPerTurnAround::samples           42                       # Writes before turning the bus around for reads
system.mem_ctrls.wrPerTurnAround::mean      17.142857                       # Writes before turning the bus around for reads
system.mem_ctrls.wrPerTurnAround::gmean     17.114092                       # Writes before turning the bus around for reads
system.mem_ctrls.wrPerTurnAround::stdev      1.001741                       # Writes before turning the bus around for reads
system.mem_ctrls.wrPerTurnAround::16               17     40.48%     40.48% # Writes before turning the bus around for reads
system.mem_ctrls.wrPerTurnAround::17                3      7.14%     47.62% # Writes before turning the bus around for reads
system.mem_ctrls.wrPerTurnAround::18               21     50.00%     97.62% # Writes before turning the bus around for reads
system.mem_ctrls.wrPerTurnAround::19                1      2.38%    100.00% # Writes before turning the bus around for reads
system.mem_ctrls.wrPerTurnAround::total            42                       # Writes before turning the bus around for reads
system.mem_ctrls.totQLat                    326472213                       # Total ticks spent queuing
system.mem_ctrls.totMemAccLat               516503463                       # Total ticks spent from burst creation until serviced by the DRAM
system.mem_ctrls.totBusLat                   50675000                       # Total ticks spent in databus transfers
system.mem_ctrls.avgQLat                     32212.35                       # Average queueing delay per DRAM burst
system.mem_ctrls.avgBusLat                    5000.00                       # Average bus latency per DRAM burst
system.mem_ctrls.avgMemAccLat                50962.35                       # Average memory access latency per DRAM burst
system.mem_ctrls.avgRdBW                       168.40                       # Average DRAM read bandwidth in MiByte/s
system.mem_ctrls.avgWrBW                        11.96                       # Average achieved write bandwidth in MiByte/s
system.mem_ctrls.avgRdBWSys                    173.47                       # Average system read bandwidth in MiByte/s
system.mem_ctrls.avgWrBWSys                     13.64                       # Average system write bandwidth in MiByte/s
system.mem_ctrls.peakBW                      12800.00                       # Theoretical peak bandwidth in MiByte/s
system.mem_ctrls.busUtil                         1.41                       # Data bus utilization in percentage
system.mem_ctrls.busUtilRead                     1.32                       # Data bus utilization in percentage for reads
system.mem_ctrls.busUtilWrite                    0.09                       # Data bus utilization in percentage for writes
system.mem_ctrls.avgRdQLen                       1.10                       # Average read queue length when enqueuing
system.mem_ctrls.avgWrQLen                      22.96                       # Average write queue length when enqueuing
system.mem_ctrls.readRowHits                     4000                       # Number of row buffer hits during reads
system.mem_ctrls.writeRowHits                     418                       # Number of row buffer hits during writes
system.mem_ctrls.readRowHitRate                 39.47                       # Row buffer hit rate for reads
system.mem_ctrls.writeRowHitRate                55.73                       # Row buffer hit rate for writes
system.mem_ctrls.avgGap                     342028.05                       # Average gap between requests
system.mem_ctrls.pageHitRate                    40.59                       # Row buffer hit rate, read and write combined
system.mem_ctrls_0.actEnergy                 27331920                       # Energy for activate commands per rank (pJ)
system.mem_ctrls_0.preEnergy                 14515875                       # Energy for precharge commands per rank (pJ)
system.mem_ctrls_0.readEnergy                43354080                       # Energy for read commands per rank (pJ)
system.mem_ctrls_0.writeEnergy                2740500                       # Energy for write commands per rank (pJ)
system.mem_ctrls_0.refreshEnergy         301173600.000000                       # Energy for refresh commands per rank (pJ)
system.mem_ctrls_0.actBackEnergy            164593770                       # Energy for active background per rank (pJ)
system.mem_ctrls_0.preBackEnergy             10515840                       # Energy for precharge background per rank (pJ)
system.mem_ctrls_0.actPowerDownEnergy      1053687180                       # Energy for active power-down per rank (pJ)
system.mem_ctrls_0.prePowerDownEnergy       320926560                       # Energy for precharge power-down per rank (pJ)
system.mem_ctrls_0.selfRefreshEnergy         97681170                       # Energy for self refresh per rank (pJ)
system.mem_ctrls_0.totalEnergy             2036721435                       # Total energy per rank (pJ)
system.mem_ctrls_0.averagePower            528.768248                       # Core power per rank (mW)
system.mem_ctrls_0.totalIdleTime           3462821098                       # Total Idle time Per DRAM Rank
system.mem_ctrls_0.memoryStateTime::IDLE     13020580                       # Time in different power states
system.mem_ctrls_0.memoryStateTime::REF     127646000                       # Time in different power states
system.mem_ctrls_0.memoryStateTime::SREF    316578074                       # Time in different power states
system.mem_ctrls_0.memoryStateTime::PRE_PDN    835729584                       # Time in different power states
system.mem_ctrls_0.memoryStateTime::ACT     248117869                       # Time in different power states
system.mem_ctrls_0.memoryStateTime::ACT_PDN   2310729813                       # Time in different power states
system.mem_ctrls_1.actEnergy                 18628260                       # Energy for activate commands per rank (pJ)
system.mem_ctrls_1.preEnergy                  9901155                       # Energy for precharge commands per rank (pJ)
system.mem_ctrls_1.readEnergy                29009820                       # Energy for read commands per rank (pJ)
system.mem_ctrls_1.writeEnergy                1017900                       # Energy for write commands per rank (pJ)
system.mem_ctrls_1.refreshEnergy         290724720.000000                       # Energy for refresh commands per rank (pJ)
system.mem_ctrls_1.actBackEnergy            133553280                       # Energy for active background per rank (pJ)
system.mem_ctrls_1.preBackEnergy             14143200                       # Energy for precharge background per rank (pJ)
system.mem_ctrls_1.actPowerDownEnergy       826007520                       # Energy for active power-down per rank (pJ)
system.mem_ctrls_1.prePowerDownEnergy       391680480                       # Energy for precharge power-down per rank (pJ)
system.mem_ctrls_1.selfRefreshEnergy        205526880                       # Energy for self refresh per rank (pJ)
system.mem_ctrls_1.totalEnergy             1920195615                       # Total energy per rank (pJ)
system.mem_ctrls_1.averagePower            498.516122                       # Core power per rank (mW)
system.mem_ctrls_1.totalIdleTime           3519348810                       # Total Idle time Per DRAM Rank
system.mem_ctrls_1.memoryStateTime::IDLE     23644207                       # Time in different power states
system.mem_ctrls_1.memoryStateTime::REF     123430000                       # Time in different power states
system.mem_ctrls_1.memoryStateTime::SREF    690677670                       # Time in different power states
system.mem_ctrls_1.memoryStateTime::PRE_PDN   1020001854                       # Time in different power states
system.mem_ctrls_1.memoryStateTime::ACT     182714289                       # Time in different power states
system.mem_ctrls_1.memoryStateTime::ACT_PDN   1811353900                       # Time in different power states
system.pwrStateResidencyTicks::UNDEFINED 1425819643920                       # Cumulative time (in ticks) in various power states
system.cpu_voltage_domain.voltage                   1                       # Voltage in Volts
system.cpu_clk_domain.clock                       833                       # Clock period in ticks
system.cpu0.dtb.walker.pwrStateResidencyTicks::UNDEFINED 1425819643920                       # Cumulative time (in ticks) in various power states
system.cpu0.apic_clk_domain.clock               13328                       # Clock period in ticks
system.cpu0.interrupts.pwrStateResidencyTicks::UNDEFINED 1425819643920                       # Cumulative time (in ticks) in various power states
system.cpu0.itb.walker.pwrStateResidencyTicks::UNDEFINED 1425819643920                       # Cumulative time (in ticks) in various power states
system.cpu0.workload.num_syscalls                   0                       # Number of system calls
system.cpu0.pwrStateResidencyTicks::ON     3851831920                       # Cumulative time (in ticks) in various power states
system.cpu0.numCycles                              11                       # number of cpu cycles simulated
system.cpu0.numWorkItemsStarted                     0                       # number of work items this cpu started
system.cpu0.numWorkItemsCompleted                   0                       # number of work items this cpu completed
system.cpu0.committedInsts                          6                       # Number of instructions committed
system.cpu0.committedOps                            7                       # Number of ops (including micro ops) committed
system.cpu0.num_int_alu_accesses                    5                       # Number of integer alu accesses
system.cpu0.num_fp_alu_accesses                     4                       # Number of float alu accesses
system.cpu0.num_func_calls                          0                       # number of times a function call or return occured
system.cpu0.num_conditional_control_insts            0                       # number of instructions that are conditional controls
system.cpu0.num_int_insts                           5                       # number of integer instructions
system.cpu0.num_fp_insts                            4                       # number of float instructions
system.cpu0.num_int_register_reads                 15                       # number of times the integer registers were read
system.cpu0.num_int_register_writes                 3                       # number of times the integer registers were written
system.cpu0.num_fp_register_reads                   6                       # number of times the floating registers were read
system.cpu0.num_fp_register_writes                  4                       # number of times the floating registers were written
system.cpu0.num_mem_refs                            5                       # number of memory refs
system.cpu0.num_load_insts                          5                       # Number of load instructions
system.cpu0.num_store_insts                         0                       # Number of store instructions
system.cpu0.num_idle_cycles                         0                       # Number of idle cycles
system.cpu0.num_busy_cycles                        11                       # Number of busy cycles
system.cpu0.not_idle_fraction                       1                       # Percentage of non-idle cycles
system.cpu0.idle_fraction                           0                       # Percentage of idle cycles
system.cpu0.op_class::No_OpClass                    0      0.00%      0.00% # Class of executed instruction
system.cpu0.op_class::IntAlu                        0      0.00%      0.00% # Class of executed instruction
system.cpu0.op_class::IntMult                       0      0.00%      0.00% # Class of executed instruction
system.cpu0.op_class::IntDiv                        0      0.00%      0.00% # Class of executed instruction
system.cpu0.op_class::FloatAdd                      2     28.57%     28.57% # Class of executed instruction
system.cpu0.op_class::FloatCmp                      0      0.00%     28.57% # Class of executed instruction
system.cpu0.op_class::FloatCvt                      0      0.00%     28.57% # Class of executed instruction
system.cpu0.op_class::FloatMult                     0      0.00%     28.57% # Class of executed instruction
system.cpu0.op_class::FloatMultAcc                  0      0.00%     28.57% # Class of executed instruction
system.cpu0.op_class::FloatDiv                      0      0.00%     28.57% # Class of executed instruction
system.cpu0.op_class::FloatMisc                     0      0.00%     28.57% # Class of executed instruction
system.cpu0.op_class::FloatSqrt                     0      0.00%     28.57% # Class of executed instruction
system.cpu0.op_class::SimdAdd                       0      0.00%     28.57% # Class of executed instruction
system.cpu0.op_class::SimdAddAcc                    0      0.00%     28.57% # Class of executed instruction
system.cpu0.op_class::SimdAlu                       0      0.00%     28.57% # Class of executed instruction
system.cpu0.op_class::SimdCmp                       0      0.00%     28.57% # Class of executed instruction
system.cpu0.op_class::SimdCvt                       0      0.00%     28.57% # Class of executed instruction
system.cpu0.op_class::SimdMisc                      0      0.00%     28.57% # Class of executed instruction
system.cpu0.op_class::SimdMult                      0      0.00%     28.57% # Class of executed instruction
system.cpu0.op_class::SimdMultAcc                   0      0.00%     28.57% # Class of executed instruction
system.cpu0.op_class::SimdShift                     0      0.00%     28.57% # Class of executed instruction
system.cpu0.op_class::SimdShiftAcc                  0      0.00%     28.57% # Class of executed instruction
system.cpu0.op_class::SimdSqrt                      0      0.00%     28.57% # Class of executed instruction
system.cpu0.op_class::SimdFloatAdd                  0      0.00%     28.57% # Class of executed instruction
system.cpu0.op_class::SimdFloatAlu                  0      0.00%     28.57% # Class of executed instruction
system.cpu0.op_class::SimdFloatCmp                  0      0.00%     28.57% # Class of executed instruction
system.cpu0.op_class::SimdFloatCvt                  0      0.00%     28.57% # Class of executed instruction
system.cpu0.op_class::SimdFloatDiv                  0      0.00%     28.57% # Class of executed instruction
system.cpu0.op_class::SimdFloatMisc                 0      0.00%     28.57% # Class of executed instruction
system.cpu0.op_class::SimdFloatMult                 0      0.00%     28.57% # Class of executed instruction
system.cpu0.op_class::SimdFloatMultAcc              0      0.00%     28.57% # Class of executed instruction
system.cpu0.op_class::SimdFloatSqrt                 0      0.00%     28.57% # Class of executed instruction
system.cpu0.op_class::MemRead                       3     42.86%     71.43% # Class of executed instruction
system.cpu0.op_class::MemWrite                      0      0.00%     71.43% # Class of executed instruction
system.cpu0.op_class::FloatMemRead                  2     28.57%    100.00% # Class of executed instruction
system.cpu0.op_class::FloatMemWrite                 0      0.00%    100.00% # Class of executed instruction
system.cpu0.op_class::IprAccess                     0      0.00%    100.00% # Class of executed instruction
system.cpu0.op_class::InstPrefetch                  0      0.00%    100.00% # Class of executed instruction
system.cpu0.op_class::total                         7                       # Class of executed instruction
system.cpu0.dcache.tags.pwrStateResidencyTicks::UNDEFINED 1425819643920                       # Cumulative time (in ticks) in various power states
system.cpu0.dcache.tags.replacements            19986                       # number of replacements
system.cpu0.dcache.tags.tagsinuse          378.616344                       # Cycle average of tags in use
system.cpu0.dcache.tags.total_refs             400355                       # Total number of references to valid blocks.
system.cpu0.dcache.tags.sampled_refs            19986                       # Sample count of references to valid blocks.
system.cpu0.dcache.tags.avg_refs            20.031772                       # Average number of references to valid blocks.
system.cpu0.dcache.tags.warmup_cycle     1422333483942                       # Cycle when the warmup percentage was hit.
system.cpu0.dcache.tags.occ_blocks::cpu0.data     0.231514                       # Average occupied blocks per requestor
system.cpu0.dcache.tags.occ_blocks::switch_cpus0.data   378.384831                       # Average occupied blocks per requestor
system.cpu0.dcache.tags.occ_percent::cpu0.data     0.000603                       # Average percentage of cache occupancy
system.cpu0.dcache.tags.occ_percent::switch_cpus0.data     0.985377                       # Average percentage of cache occupancy
system.cpu0.dcache.tags.occ_percent::total     0.985980                       # Average percentage of cache occupancy
system.cpu0.dcache.tags.occ_task_id_blocks::1024          384                       # Occupied blocks per task id
system.cpu0.dcache.tags.age_task_id_blocks_1024::0           27                       # Occupied blocks per task id
system.cpu0.dcache.tags.age_task_id_blocks_1024::1          270                       # Occupied blocks per task id
system.cpu0.dcache.tags.age_task_id_blocks_1024::2           79                       # Occupied blocks per task id
system.cpu0.dcache.tags.age_task_id_blocks_1024::3            8                       # Occupied blocks per task id
system.cpu0.dcache.tags.occ_task_id_percent::1024            1                       # Percentage of cache occupancy per task id
system.cpu0.dcache.tags.tag_accesses          2802468                       # Number of tag accesses
system.cpu0.dcache.tags.data_accesses         2802468                       # Number of data accesses
system.cpu0.dcache.pwrStateResidencyTicks::UNDEFINED 1425819643920                       # Cumulative time (in ticks) in various power states
system.cpu0.dcache.ReadReq_hits::switch_cpus0.data       311189                       # number of ReadReq hits
system.cpu0.dcache.ReadReq_hits::total         311189                       # number of ReadReq hits
system.cpu0.dcache.WriteReq_hits::switch_cpus0.data       132124                       # number of WriteReq hits
system.cpu0.dcache.WriteReq_hits::total        132124                       # number of WriteReq hits
system.cpu0.dcache.demand_hits::switch_cpus0.data       443313                       # number of demand (read+write) hits
system.cpu0.dcache.demand_hits::total          443313                       # number of demand (read+write) hits
system.cpu0.dcache.overall_hits::switch_cpus0.data       443313                       # number of overall hits
system.cpu0.dcache.overall_hits::total         443313                       # number of overall hits
system.cpu0.dcache.ReadReq_misses::cpu0.data            5                       # number of ReadReq misses
system.cpu0.dcache.ReadReq_misses::switch_cpus0.data        18381                       # number of ReadReq misses
system.cpu0.dcache.ReadReq_misses::total        18386                       # number of ReadReq misses
system.cpu0.dcache.WriteReq_misses::switch_cpus0.data         1984                       # number of WriteReq misses
system.cpu0.dcache.WriteReq_misses::total         1984                       # number of WriteReq misses
system.cpu0.dcache.demand_misses::cpu0.data            5                       # number of demand (read+write) misses
system.cpu0.dcache.demand_misses::switch_cpus0.data        20365                       # number of demand (read+write) misses
system.cpu0.dcache.demand_misses::total         20370                       # number of demand (read+write) misses
system.cpu0.dcache.overall_misses::cpu0.data            5                       # number of overall misses
system.cpu0.dcache.overall_misses::switch_cpus0.data        20365                       # number of overall misses
system.cpu0.dcache.overall_misses::total        20370                       # number of overall misses
system.cpu0.dcache.ReadReq_miss_latency::switch_cpus0.data    632115386                       # number of ReadReq miss cycles
system.cpu0.dcache.ReadReq_miss_latency::total    632115386                       # number of ReadReq miss cycles
system.cpu0.dcache.WriteReq_miss_latency::switch_cpus0.data     73423952                       # number of WriteReq miss cycles
system.cpu0.dcache.WriteReq_miss_latency::total     73423952                       # number of WriteReq miss cycles
system.cpu0.dcache.demand_miss_latency::switch_cpus0.data    705539338                       # number of demand (read+write) miss cycles
system.cpu0.dcache.demand_miss_latency::total    705539338                       # number of demand (read+write) miss cycles
system.cpu0.dcache.overall_miss_latency::switch_cpus0.data    705539338                       # number of overall miss cycles
system.cpu0.dcache.overall_miss_latency::total    705539338                       # number of overall miss cycles
system.cpu0.dcache.ReadReq_accesses::cpu0.data            5                       # number of ReadReq accesses(hits+misses)
system.cpu0.dcache.ReadReq_accesses::switch_cpus0.data       329570                       # number of ReadReq accesses(hits+misses)
system.cpu0.dcache.ReadReq_accesses::total       329575                       # number of ReadReq accesses(hits+misses)
system.cpu0.dcache.WriteReq_accesses::switch_cpus0.data       134108                       # number of WriteReq accesses(hits+misses)
system.cpu0.dcache.WriteReq_accesses::total       134108                       # number of WriteReq accesses(hits+misses)
system.cpu0.dcache.demand_accesses::cpu0.data            5                       # number of demand (read+write) accesses
system.cpu0.dcache.demand_accesses::switch_cpus0.data       463678                       # number of demand (read+write) accesses
system.cpu0.dcache.demand_accesses::total       463683                       # number of demand (read+write) accesses
system.cpu0.dcache.overall_accesses::cpu0.data            5                       # number of overall (read+write) accesses
system.cpu0.dcache.overall_accesses::switch_cpus0.data       463678                       # number of overall (read+write) accesses
system.cpu0.dcache.overall_accesses::total       463683                       # number of overall (read+write) accesses
system.cpu0.dcache.ReadReq_miss_rate::cpu0.data            1                       # miss rate for ReadReq accesses
system.cpu0.dcache.ReadReq_miss_rate::switch_cpus0.data     0.055773                       # miss rate for ReadReq accesses
system.cpu0.dcache.ReadReq_miss_rate::total     0.055787                       # miss rate for ReadReq accesses
system.cpu0.dcache.WriteReq_miss_rate::switch_cpus0.data     0.014794                       # miss rate for WriteReq accesses
system.cpu0.dcache.WriteReq_miss_rate::total     0.014794                       # miss rate for WriteReq accesses
system.cpu0.dcache.demand_miss_rate::cpu0.data            1                       # miss rate for demand accesses
system.cpu0.dcache.demand_miss_rate::switch_cpus0.data     0.043921                       # miss rate for demand accesses
system.cpu0.dcache.demand_miss_rate::total     0.043931                       # miss rate for demand accesses
system.cpu0.dcache.overall_miss_rate::cpu0.data            1                       # miss rate for overall accesses
system.cpu0.dcache.overall_miss_rate::switch_cpus0.data     0.043921                       # miss rate for overall accesses
system.cpu0.dcache.overall_miss_rate::total     0.043931                       # miss rate for overall accesses
system.cpu0.dcache.ReadReq_avg_miss_latency::switch_cpus0.data 34389.608074                       # average ReadReq miss latency
system.cpu0.dcache.ReadReq_avg_miss_latency::total 34380.255956                       # average ReadReq miss latency
system.cpu0.dcache.WriteReq_avg_miss_latency::switch_cpus0.data 37008.040323                       # average WriteReq miss latency
system.cpu0.dcache.WriteReq_avg_miss_latency::total 37008.040323                       # average WriteReq miss latency
system.cpu0.dcache.demand_avg_miss_latency::switch_cpus0.data 34644.701105                       # average overall miss latency
system.cpu0.dcache.demand_avg_miss_latency::total 34636.197251                       # average overall miss latency
system.cpu0.dcache.overall_avg_miss_latency::switch_cpus0.data 34644.701105                       # average overall miss latency
system.cpu0.dcache.overall_avg_miss_latency::total 34636.197251                       # average overall miss latency
system.cpu0.dcache.blocked_cycles::no_mshrs            0                       # number of cycles access was blocked
system.cpu0.dcache.blocked_cycles::no_targets            0                       # number of cycles access was blocked
system.cpu0.dcache.blocked::no_mshrs                0                       # number of cycles access was blocked
system.cpu0.dcache.blocked::no_targets              0                       # number of cycles access was blocked
system.cpu0.dcache.avg_blocked_cycles::no_mshrs          nan                       # average number of cycles each access was blocked
system.cpu0.dcache.avg_blocked_cycles::no_targets          nan                       # average number of cycles each access was blocked
system.cpu0.dcache.writebacks::writebacks         3182                       # number of writebacks
system.cpu0.dcache.writebacks::total             3182                       # number of writebacks
system.cpu0.dcache.ReadReq_mshr_misses::switch_cpus0.data        18381                       # number of ReadReq MSHR misses
system.cpu0.dcache.ReadReq_mshr_misses::total        18381                       # number of ReadReq MSHR misses
system.cpu0.dcache.WriteReq_mshr_misses::switch_cpus0.data         1984                       # number of WriteReq MSHR misses
system.cpu0.dcache.WriteReq_mshr_misses::total         1984                       # number of WriteReq MSHR misses
system.cpu0.dcache.demand_mshr_misses::switch_cpus0.data        20365                       # number of demand (read+write) MSHR misses
system.cpu0.dcache.demand_mshr_misses::total        20365                       # number of demand (read+write) MSHR misses
system.cpu0.dcache.overall_mshr_misses::switch_cpus0.data        20365                       # number of overall MSHR misses
system.cpu0.dcache.overall_mshr_misses::total        20365                       # number of overall MSHR misses
system.cpu0.dcache.ReadReq_mshr_miss_latency::switch_cpus0.data    601492640                       # number of ReadReq MSHR miss cycles
system.cpu0.dcache.ReadReq_mshr_miss_latency::total    601492640                       # number of ReadReq MSHR miss cycles
system.cpu0.dcache.WriteReq_mshr_miss_latency::switch_cpus0.data     70118608                       # number of WriteReq MSHR miss cycles
system.cpu0.dcache.WriteReq_mshr_miss_latency::total     70118608                       # number of WriteReq MSHR miss cycles
system.cpu0.dcache.demand_mshr_miss_latency::switch_cpus0.data    671611248                       # number of demand (read+write) MSHR miss cycles
system.cpu0.dcache.demand_mshr_miss_latency::total    671611248                       # number of demand (read+write) MSHR miss cycles
system.cpu0.dcache.overall_mshr_miss_latency::switch_cpus0.data    671611248                       # number of overall MSHR miss cycles
system.cpu0.dcache.overall_mshr_miss_latency::total    671611248                       # number of overall MSHR miss cycles
system.cpu0.dcache.ReadReq_mshr_miss_rate::switch_cpus0.data     0.055773                       # mshr miss rate for ReadReq accesses
system.cpu0.dcache.ReadReq_mshr_miss_rate::total     0.055772                       # mshr miss rate for ReadReq accesses
system.cpu0.dcache.WriteReq_mshr_miss_rate::switch_cpus0.data     0.014794                       # mshr miss rate for WriteReq accesses
system.cpu0.dcache.WriteReq_mshr_miss_rate::total     0.014794                       # mshr miss rate for WriteReq accesses
system.cpu0.dcache.demand_mshr_miss_rate::switch_cpus0.data     0.043921                       # mshr miss rate for demand accesses
system.cpu0.dcache.demand_mshr_miss_rate::total     0.043920                       # mshr miss rate for demand accesses
system.cpu0.dcache.overall_mshr_miss_rate::switch_cpus0.data     0.043921                       # mshr miss rate for overall accesses
system.cpu0.dcache.overall_mshr_miss_rate::total     0.043920                       # mshr miss rate for overall accesses
system.cpu0.dcache.ReadReq_avg_mshr_miss_latency::switch_cpus0.data 32723.608074                       # average ReadReq mshr miss latency
system.cpu0.dcache.ReadReq_avg_mshr_miss_latency::total 32723.608074                       # average ReadReq mshr miss latency
system.cpu0.dcache.WriteReq_avg_mshr_miss_latency::switch_cpus0.data 35342.040323                       # average WriteReq mshr miss latency
system.cpu0.dcache.WriteReq_avg_mshr_miss_latency::total 35342.040323                       # average WriteReq mshr miss latency
system.cpu0.dcache.demand_avg_mshr_miss_latency::switch_cpus0.data 32978.701105                       # average overall mshr miss latency
system.cpu0.dcache.demand_avg_mshr_miss_latency::total 32978.701105                       # average overall mshr miss latency
system.cpu0.dcache.overall_avg_mshr_miss_latency::switch_cpus0.data 32978.701105                       # average overall mshr miss latency
system.cpu0.dcache.overall_avg_mshr_miss_latency::total 32978.701105                       # average overall mshr miss latency
system.cpu0.dtb_walker_cache.tags.pwrStateResidencyTicks::UNDEFINED 1425819643920                       # Cumulative time (in ticks) in various power states
system.cpu0.dtb_walker_cache.tags.replacements            0                       # number of replacements
system.cpu0.dtb_walker_cache.tags.tagsinuse            0                       # Cycle average of tags in use
system.cpu0.dtb_walker_cache.tags.total_refs            0                       # Total number of references to valid blocks.
system.cpu0.dtb_walker_cache.tags.sampled_refs            0                       # Sample count of references to valid blocks.
system.cpu0.dtb_walker_cache.tags.avg_refs          nan                       # Average number of references to valid blocks.
system.cpu0.dtb_walker_cache.tags.warmup_cycle            0                       # Cycle when the warmup percentage was hit.
system.cpu0.dtb_walker_cache.tags.tag_accesses            0                       # Number of tag accesses
system.cpu0.dtb_walker_cache.tags.data_accesses            0                       # Number of data accesses
system.cpu0.dtb_walker_cache.pwrStateResidencyTicks::UNDEFINED 1425819643920                       # Cumulative time (in ticks) in various power states
system.cpu0.dtb_walker_cache.blocked_cycles::no_mshrs            0                       # number of cycles access was blocked
system.cpu0.dtb_walker_cache.blocked_cycles::no_targets            0                       # number of cycles access was blocked
system.cpu0.dtb_walker_cache.blocked::no_mshrs            0                       # number of cycles access was blocked
system.cpu0.dtb_walker_cache.blocked::no_targets            0                       # number of cycles access was blocked
system.cpu0.dtb_walker_cache.avg_blocked_cycles::no_mshrs          nan                       # average number of cycles each access was blocked
system.cpu0.dtb_walker_cache.avg_blocked_cycles::no_targets          nan                       # average number of cycles each access was blocked
system.cpu0.icache.tags.pwrStateResidencyTicks::UNDEFINED 1425819643920                       # Cumulative time (in ticks) in various power states
system.cpu0.icache.tags.replacements             2642                       # number of replacements
system.cpu0.icache.tags.tagsinuse          480.326037                       # Cycle average of tags in use
system.cpu0.icache.tags.total_refs             306376                       # Total number of references to valid blocks.
system.cpu0.icache.tags.sampled_refs             2642                       # Sample count of references to valid blocks.
system.cpu0.icache.tags.avg_refs           115.963664                       # Average number of references to valid blocks.
system.cpu0.icache.tags.warmup_cycle                0                       # Cycle when the warmup percentage was hit.
system.cpu0.icache.tags.occ_blocks::cpu0.inst     0.270269                       # Average occupied blocks per requestor
system.cpu0.icache.tags.occ_blocks::switch_cpus0.inst   480.055768                       # Average occupied blocks per requestor
system.cpu0.icache.tags.occ_percent::cpu0.inst     0.000528                       # Average percentage of cache occupancy
system.cpu0.icache.tags.occ_percent::switch_cpus0.inst     0.937609                       # Average percentage of cache occupancy
system.cpu0.icache.tags.occ_percent::total     0.938137                       # Average percentage of cache occupancy
system.cpu0.icache.tags.occ_task_id_blocks::1024          507                       # Occupied blocks per task id
system.cpu0.icache.tags.age_task_id_blocks_1024::1           72                       # Occupied blocks per task id
system.cpu0.icache.tags.age_task_id_blocks_1024::2          132                       # Occupied blocks per task id
system.cpu0.icache.tags.age_task_id_blocks_1024::3          303                       # Occupied blocks per task id
system.cpu0.icache.tags.occ_task_id_percent::1024     0.990234                       # Percentage of cache occupancy per task id
system.cpu0.icache.tags.tag_accesses         10903949                       # Number of tag accesses
system.cpu0.icache.tags.data_accesses        10903949                       # Number of data accesses
system.cpu0.icache.pwrStateResidencyTicks::UNDEFINED 1425819643920                       # Cumulative time (in ticks) in various power states
system.cpu0.icache.ReadReq_hits::cpu0.inst            8                       # number of ReadReq hits
system.cpu0.icache.ReadReq_hits::switch_cpus0.inst      1359443                       # number of ReadReq hits
system.cpu0.icache.ReadReq_hits::total        1359451                       # number of ReadReq hits
system.cpu0.icache.demand_hits::cpu0.inst            8                       # number of demand (read+write) hits
system.cpu0.icache.demand_hits::switch_cpus0.inst      1359443                       # number of demand (read+write) hits
system.cpu0.icache.demand_hits::total         1359451                       # number of demand (read+write) hits
system.cpu0.icache.overall_hits::cpu0.inst            8                       # number of overall hits
system.cpu0.icache.overall_hits::switch_cpus0.inst      1359443                       # number of overall hits
system.cpu0.icache.overall_hits::total        1359451                       # number of overall hits
system.cpu0.icache.ReadReq_misses::cpu0.inst            2                       # number of ReadReq misses
system.cpu0.icache.ReadReq_misses::switch_cpus0.inst         3147                       # number of ReadReq misses
system.cpu0.icache.ReadReq_misses::total         3149                       # number of ReadReq misses
system.cpu0.icache.demand_misses::cpu0.inst            2                       # number of demand (read+write) misses
system.cpu0.icache.demand_misses::switch_cpus0.inst         3147                       # number of demand (read+write) misses
system.cpu0.icache.demand_misses::total          3149                       # number of demand (read+write) misses
system.cpu0.icache.overall_misses::cpu0.inst            2                       # number of overall misses
system.cpu0.icache.overall_misses::switch_cpus0.inst         3147                       # number of overall misses
system.cpu0.icache.overall_misses::total         3149                       # number of overall misses
system.cpu0.icache.ReadReq_miss_latency::switch_cpus0.inst    142866164                       # number of ReadReq miss cycles
system.cpu0.icache.ReadReq_miss_latency::total    142866164                       # number of ReadReq miss cycles
system.cpu0.icache.demand_miss_latency::switch_cpus0.inst    142866164                       # number of demand (read+write) miss cycles
system.cpu0.icache.demand_miss_latency::total    142866164                       # number of demand (read+write) miss cycles
system.cpu0.icache.overall_miss_latency::switch_cpus0.inst    142866164                       # number of overall miss cycles
system.cpu0.icache.overall_miss_latency::total    142866164                       # number of overall miss cycles
system.cpu0.icache.ReadReq_accesses::cpu0.inst           10                       # number of ReadReq accesses(hits+misses)
system.cpu0.icache.ReadReq_accesses::switch_cpus0.inst      1362590                       # number of ReadReq accesses(hits+misses)
system.cpu0.icache.ReadReq_accesses::total      1362600                       # number of ReadReq accesses(hits+misses)
system.cpu0.icache.demand_accesses::cpu0.inst           10                       # number of demand (read+write) accesses
system.cpu0.icache.demand_accesses::switch_cpus0.inst      1362590                       # number of demand (read+write) accesses
system.cpu0.icache.demand_accesses::total      1362600                       # number of demand (read+write) accesses
system.cpu0.icache.overall_accesses::cpu0.inst           10                       # number of overall (read+write) accesses
system.cpu0.icache.overall_accesses::switch_cpus0.inst      1362590                       # number of overall (read+write) accesses
system.cpu0.icache.overall_accesses::total      1362600                       # number of overall (read+write) accesses
system.cpu0.icache.ReadReq_miss_rate::cpu0.inst     0.200000                       # miss rate for ReadReq accesses
system.cpu0.icache.ReadReq_miss_rate::switch_cpus0.inst     0.002310                       # miss rate for ReadReq accesses
system.cpu0.icache.ReadReq_miss_rate::total     0.002311                       # miss rate for ReadReq accesses
system.cpu0.icache.demand_miss_rate::cpu0.inst     0.200000                       # miss rate for demand accesses
system.cpu0.icache.demand_miss_rate::switch_cpus0.inst     0.002310                       # miss rate for demand accesses
system.cpu0.icache.demand_miss_rate::total     0.002311                       # miss rate for demand accesses
system.cpu0.icache.overall_miss_rate::cpu0.inst     0.200000                       # miss rate for overall accesses
system.cpu0.icache.overall_miss_rate::switch_cpus0.inst     0.002310                       # miss rate for overall accesses
system.cpu0.icache.overall_miss_rate::total     0.002311                       # miss rate for overall accesses
system.cpu0.icache.ReadReq_avg_miss_latency::switch_cpus0.inst 45397.573562                       # average ReadReq miss latency
system.cpu0.icache.ReadReq_avg_miss_latency::total 45368.740553                       # average ReadReq miss latency
system.cpu0.icache.demand_avg_miss_latency::switch_cpus0.inst 45397.573562                       # average overall miss latency
system.cpu0.icache.demand_avg_miss_latency::total 45368.740553                       # average overall miss latency
system.cpu0.icache.overall_avg_miss_latency::switch_cpus0.inst 45397.573562                       # average overall miss latency
system.cpu0.icache.overall_avg_miss_latency::total 45368.740553                       # average overall miss latency
system.cpu0.icache.blocked_cycles::no_mshrs            0                       # number of cycles access was blocked
system.cpu0.icache.blocked_cycles::no_targets            0                       # number of cycles access was blocked
system.cpu0.icache.blocked::no_mshrs                0                       # number of cycles access was blocked
system.cpu0.icache.blocked::no_targets              0                       # number of cycles access was blocked
system.cpu0.icache.avg_blocked_cycles::no_mshrs          nan                       # average number of cycles each access was blocked
system.cpu0.icache.avg_blocked_cycles::no_targets          nan                       # average number of cycles each access was blocked
system.cpu0.icache.writebacks::writebacks         2642                       # number of writebacks
system.cpu0.icache.writebacks::total             2642                       # number of writebacks
system.cpu0.icache.ReadReq_mshr_misses::switch_cpus0.inst         3147                       # number of ReadReq MSHR misses
system.cpu0.icache.ReadReq_mshr_misses::total         3147                       # number of ReadReq MSHR misses
system.cpu0.icache.demand_mshr_misses::switch_cpus0.inst         3147                       # number of demand (read+write) MSHR misses
system.cpu0.icache.demand_mshr_misses::total         3147                       # number of demand (read+write) MSHR misses
system.cpu0.icache.overall_mshr_misses::switch_cpus0.inst         3147                       # number of overall MSHR misses
system.cpu0.icache.overall_mshr_misses::total         3147                       # number of overall MSHR misses
system.cpu0.icache.ReadReq_mshr_miss_latency::switch_cpus0.inst    137623262                       # number of ReadReq MSHR miss cycles
system.cpu0.icache.ReadReq_mshr_miss_latency::total    137623262                       # number of ReadReq MSHR miss cycles
system.cpu0.icache.demand_mshr_miss_latency::switch_cpus0.inst    137623262                       # number of demand (read+write) MSHR miss cycles
system.cpu0.icache.demand_mshr_miss_latency::total    137623262                       # number of demand (read+write) MSHR miss cycles
system.cpu0.icache.overall_mshr_miss_latency::switch_cpus0.inst    137623262                       # number of overall MSHR miss cycles
system.cpu0.icache.overall_mshr_miss_latency::total    137623262                       # number of overall MSHR miss cycles
system.cpu0.icache.ReadReq_mshr_miss_rate::switch_cpus0.inst     0.002310                       # mshr miss rate for ReadReq accesses
system.cpu0.icache.ReadReq_mshr_miss_rate::total     0.002310                       # mshr miss rate for ReadReq accesses
system.cpu0.icache.demand_mshr_miss_rate::switch_cpus0.inst     0.002310                       # mshr miss rate for demand accesses
system.cpu0.icache.demand_mshr_miss_rate::total     0.002310                       # mshr miss rate for demand accesses
system.cpu0.icache.overall_mshr_miss_rate::switch_cpus0.inst     0.002310                       # mshr miss rate for overall accesses
system.cpu0.icache.overall_mshr_miss_rate::total     0.002310                       # mshr miss rate for overall accesses
system.cpu0.icache.ReadReq_avg_mshr_miss_latency::switch_cpus0.inst 43731.573562                       # average ReadReq mshr miss latency
system.cpu0.icache.ReadReq_avg_mshr_miss_latency::total 43731.573562                       # average ReadReq mshr miss latency
system.cpu0.icache.demand_avg_mshr_miss_latency::switch_cpus0.inst 43731.573562                       # average overall mshr miss latency
system.cpu0.icache.demand_avg_mshr_miss_latency::total 43731.573562                       # average overall mshr miss latency
system.cpu0.icache.overall_avg_mshr_miss_latency::switch_cpus0.inst 43731.573562                       # average overall mshr miss latency
system.cpu0.icache.overall_avg_mshr_miss_latency::total 43731.573562                       # average overall mshr miss latency
system.cpu0.itb_walker_cache.tags.pwrStateResidencyTicks::UNDEFINED 1425819643920                       # Cumulative time (in ticks) in various power states
system.cpu0.itb_walker_cache.tags.replacements            0                       # number of replacements
system.cpu0.itb_walker_cache.tags.tagsinuse            0                       # Cycle average of tags in use
system.cpu0.itb_walker_cache.tags.total_refs            0                       # Total number of references to valid blocks.
system.cpu0.itb_walker_cache.tags.sampled_refs            0                       # Sample count of references to valid blocks.
system.cpu0.itb_walker_cache.tags.avg_refs          nan                       # Average number of references to valid blocks.
system.cpu0.itb_walker_cache.tags.warmup_cycle            0                       # Cycle when the warmup percentage was hit.
system.cpu0.itb_walker_cache.tags.tag_accesses            0                       # Number of tag accesses
system.cpu0.itb_walker_cache.tags.data_accesses            0                       # Number of data accesses
system.cpu0.itb_walker_cache.pwrStateResidencyTicks::UNDEFINED 1425819643920                       # Cumulative time (in ticks) in various power states
system.cpu0.itb_walker_cache.blocked_cycles::no_mshrs            0                       # number of cycles access was blocked
system.cpu0.itb_walker_cache.blocked_cycles::no_targets            0                       # number of cycles access was blocked
system.cpu0.itb_walker_cache.blocked::no_mshrs            0                       # number of cycles access was blocked
system.cpu0.itb_walker_cache.blocked::no_targets            0                       # number of cycles access was blocked
system.cpu0.itb_walker_cache.avg_blocked_cycles::no_mshrs          nan                       # average number of cycles each access was blocked
system.cpu0.itb_walker_cache.avg_blocked_cycles::no_targets          nan                       # average number of cycles each access was blocked
system.cpu1.dtb.walker.pwrStateResidencyTicks::UNDEFINED 1425819643920                       # Cumulative time (in ticks) in various power states
system.cpu1.apic_clk_domain.clock               13328                       # Clock period in ticks
system.cpu1.interrupts.pwrStateResidencyTicks::UNDEFINED 1425819643920                       # Cumulative time (in ticks) in various power states
system.cpu1.itb.walker.pwrStateResidencyTicks::UNDEFINED 1425819643920                       # Cumulative time (in ticks) in various power states
system.cpu1.workload.num_syscalls                   0                       # Number of system calls
system.cpu1.pwrStateResidencyTicks::ON     3851831920                       # Cumulative time (in ticks) in various power states
system.cpu1.numCycles                              11                       # number of cpu cycles simulated
system.cpu1.numWorkItemsStarted                     0                       # number of work items this cpu started
system.cpu1.numWorkItemsCompleted                   0                       # number of work items this cpu completed
[...]
system.switch_cpus1.Branches                 17098468                       # Number of branches fetched
system.switch_cpus1.op_class::No_OpClass       965632      0.53%      0.53% # Class of executed instruction
system.switch_cpus1.op_class::IntAlu        112254521     61.12%     61.65% # Class of executed instruction
system.switch_cpus1.op_class::IntMult           27304      0.01%     61.66% # Class of executed instruction
system.switch_cpus1.op_class::IntDiv             1757      0.00%     61.66% # Class of executed instruction
system.switch_cpus1.op_class::FloatAdd       22938981     12.49%     74.15% # Class of executed instruction
system.switch_cpus1.op_class::FloatCmp              0      0.00%     74.15% # Class of executed instruction
system.switch_cpus1.op_class::FloatCvt              0      0.00%     74.15% # Class of executed instruction
system.switch_cpus1.op_class::FloatMult             0      0.00%     74.15% # Class of executed instruction
system.switch_cpus1.op_class::FloatMultAcc            0      0.00%     74.15% # Class of executed instruction
system.switch_cpus1.op_class::FloatDiv           3356      0.00%     74.16% # Class of executed instruction
system.switch_cpus1.op_class::FloatMisc             0      0.00%     74.16% # Class of executed instruction
system.switch_cpus1.op_class::FloatSqrt             0      0.00%     74.16% # Class of executed instruction
system.switch_cpus1.op_class::SimdAdd               0      0.00%     74.16% # Class of executed instruction
system.switch_cpus1.op_class::SimdAddAcc            0      0.00%     74.16% # Class of executed instruction
system.switch_cpus1.op_class::SimdAlu               0      0.00%     74.16% # Class of executed instruction
system.switch_cpus1.op_class::SimdCmp               0      0.00%     74.16% # Class of executed instruction
system.switch_cpus1.op_class::SimdCvt               0      0.00%     74.16% # Class of executed instruction
system.switch_cpus1.op_class::SimdMisc              0      0.00%     74.16% # Class of executed instruction
system.switch_cpus1.op_class::SimdMult              0      0.00%     74.16% # Class of executed instruction
system.switch_cpus1.op_class::SimdMultAcc            0      0.00%     74.16% # Class of executed instruction
system.switch_cpus1.op_class::SimdShift             0      0.00%     74.16% # Class of executed instruction
system.switch_cpus1.op_class::SimdShiftAcc            0      0.00%     74.16% # Class of executed instruction
system.switch_cpus1.op_class::SimdSqrt              0      0.00%     74.16% # Class of executed instruction
system.switch_cpus1.op_class::SimdFloatAdd            0      0.00%     74.16% # Class of executed instruction
system.switch_cpus1.op_class::SimdFloatAlu            0      0.00%     74.16% # Class of executed instruction
system.switch_cpus1.op_class::SimdFloatCmp            0      0.00%     74.16% # Class of executed instruction
system.switch_cpus1.op_class::SimdFloatCvt            0      0.00%     74.16% # Class of executed instruction
system.switch_cpus1.op_class::SimdFloatDiv            0      0.00%     74.16% # Class of executed instruction
system.switch_cpus1.op_class::SimdFloatMisc            0      0.00%     74.16% # Class of executed instruction
system.switch_cpus1.op_class::SimdFloatMult            0      0.00%     74.16% # Class of executed instruction
system.switch_cpus1.op_class::SimdFloatMultAcc            0      0.00%     74.16% # Class of executed instruction
system.switch_cpus1.op_class::SimdFloatSqrt            0      0.00%     74.16% # Class of executed instruction
system.switch_cpus1.op_class::MemRead        19547698     10.64%     84.80% # Class of executed instruction
system.switch_cpus1.op_class::MemWrite       11908646      6.48%     91.28% # Class of executed instruction
system.switch_cpus1.op_class::FloatMemRead     13745371      7.48%     98.77% # Class of executed instruction
system.switch_cpus1.op_class::FloatMemWrite      2263173      1.23%    100.00% # Class of executed instruction
system.switch_cpus1.op_class::IprAccess             0      0.00%    100.00% # Class of executed instruction
system.switch_cpus1.op_class::InstPrefetch            0      0.00%    100.00% # Class of executed instruction
system.switch_cpus1.op_class::total         183656439                       # Class of executed instruction
system.switch_cpus2.dtb.walker.pwrStateResidencyTicks::UNDEFINED 371829600310                       # Cumulative time (in ticks) in various power states
system.switch_cpus2.itb.walker.pwrStateResidencyTicks::UNDEFINED 371829600310                       # Cumulative time (in ticks) in various power states
system.switch_cpus2.pwrStateResidencyTicks::ON 371829600310                       # Cumulative time (in ticks) in various power states
system.switch_cpus2.numCycles               446374055                       # number of cpu cycles simulated
system.switch_cpus2.numWorkItemsStarted             0                       # number of work items this cpu started
system.switch_cpus2.numWorkItemsCompleted            0                       # number of work items this cpu completed
system.switch_cpus2.committedInsts          100387315                       # Number of instructions committed
system.switch_cpus2.committedOps            183524488                       # Number of ops (including micro ops) committed
system.switch_cpus2.num_int_alu_accesses    155481784                       # Number of integer alu accesses
system.switch_cpus2.num_fp_alu_accesses      43228440                       # Number of float alu accesses
system.switch_cpus2.num_func_calls            5069625                       # number of times a function call or return occured
system.switch_cpus2.num_conditional_control_insts     10287829                       # number of instructions that are conditional controls
system.switch_cpus2.num_int_insts           155481784                       # number of integer instructions
system.switch_cpus2.num_fp_insts             43228440                       # number of float instructions
system.switch_cpus2.num_int_register_reads    325955203                       # number of times the integer registers were read
system.switch_cpus2.num_int_register_writes    111165717                       # number of times the integer registers were written
system.switch_cpus2.num_fp_register_reads     68918478                       # number of times the floating registers were read
system.switch_cpus2.num_fp_register_writes     38326757                       # number of times the floating registers were written
system.switch_cpus2.num_cc_register_reads     70433583                       # number of times the CC registers were read
system.switch_cpus2.num_cc_register_writes     37228178                       # number of times the CC registers were written
system.switch_cpus2.num_mem_refs             47430480                       # number of memory refs
system.switch_cpus2.num_load_insts           33268700                       # Number of load instructions
system.switch_cpus2.num_store_insts          14161780                       # Number of store instructions
system.switch_cpus2.num_idle_cycles                 0                       # Number of idle cycles
system.switch_cpus2.num_busy_cycles         446374055                       # Number of busy cycles
system.switch_cpus2.not_idle_fraction               1                       # Percentage of non-idle cycles
system.switch_cpus2.idle_fraction                   0                       # Percentage of idle cycles
system.switch_cpus2.Branches                 17086625                       # Number of branches fetched
system.switch_cpus2.op_class::No_OpClass       964878      0.53%      0.53% # Class of executed instruction
system.switch_cpus2.op_class::IntAlu        112176226     61.12%     61.65% # Class of executed instruction
system.switch_cpus2.op_class::IntMult           27280      0.01%     61.66% # Class of executed instruction
system.switch_cpus2.op_class::IntDiv             1757      0.00%     61.66% # Class of executed instruction
system.switch_cpus2.op_class::FloatAdd       22920514     12.49%     74.15% # Class of executed instruction
system.switch_cpus2.op_class::FloatCmp              0      0.00%     74.15% # Class of executed instruction
system.switch_cpus2.op_class::FloatCvt              0      0.00%     74.15% # Class of executed instruction
system.switch_cpus2.op_class::FloatMult             0      0.00%     74.15% # Class of executed instruction
system.switch_cpus2.op_class::FloatMultAcc            0      0.00%     74.15% # Class of executed instruction
system.switch_cpus2.op_class::FloatDiv           3353      0.00%     74.16% # Class of executed instruction
system.switch_cpus2.op_class::FloatMisc             0      0.00%     74.16% # Class of executed instruction
system.switch_cpus2.op_class::FloatSqrt             0      0.00%     74.16% # Class of executed instruction
system.switch_cpus2.op_class::SimdAdd               0      0.00%     74.16% # Class of executed instruction
system.switch_cpus2.op_class::SimdAddAcc            0      0.00%     74.16% # Class of executed instruction
system.switch_cpus2.op_class::SimdAlu               0      0.00%     74.16% # Class of executed instruction
system.switch_cpus2.op_class::SimdCmp               0      0.00%     74.16% # Class of executed instruction
system.switch_cpus2.op_class::SimdCvt               0      0.00%     74.16% # Class of executed instruction
system.switch_cpus2.op_class::SimdMisc              0      0.00%     74.16% # Class of executed instruction
system.switch_cpus2.op_class::SimdMult              0      0.00%     74.16% # Class of executed instruction
system.switch_cpus2.op_class::SimdMultAcc            0      0.00%     74.16% # Class of executed instruction
system.switch_cpus2.op_class::SimdShift             0      0.00%     74.16% # Class of executed instruction
system.switch_cpus2.op_class::SimdShiftAcc            0      0.00%     74.16% # Class of executed instruction
system.switch_cpus2.op_class::SimdSqrt              0      0.00%     74.16% # Class of executed instruction
system.switch_cpus2.op_class::SimdFloatAdd            0      0.00%     74.16% # Class of executed instruction
system.switch_cpus2.op_class::SimdFloatAlu            0      0.00%     74.16% # Class of executed instruction
system.switch_cpus2.op_class::SimdFloatCmp            0      0.00%     74.16% # Class of executed instruction
system.switch_cpus2.op_class::SimdFloatCvt            0      0.00%     74.16% # Class of executed instruction
system.switch_cpus2.op_class::SimdFloatDiv            0      0.00%     74.16% # Class of executed instruction
system.switch_cpus2.op_class::SimdFloatMisc            0      0.00%     74.16% # Class of executed instruction
system.switch_cpus2.op_class::SimdFloatMult            0      0.00%     74.16% # Class of executed instruction
system.switch_cpus2.op_class::SimdFloatMultAcc            0      0.00%     74.16% # Class of executed instruction
system.switch_cpus2.op_class::SimdFloatSqrt            0      0.00%     74.16% # Class of executed instruction
system.switch_cpus2.op_class::MemRead        19534017     10.64%     84.80% # Class of executed instruction
system.switch_cpus2.op_class::MemWrite       11900448      6.48%     91.28% # Class of executed instruction
system.switch_cpus2.op_class::FloatMemRead     13734683      7.48%     98.77% # Class of executed instruction
system.switch_cpus2.op_class::FloatMemWrite      2261332      1.23%    100.00% # Class of executed instruction
system.switch_cpus2.op_class::IprAccess             0      0.00%    100.00% # Class of executed instruction
system.switch_cpus2.op_class::InstPrefetch            0      0.00%    100.00% # Class of executed instruction
system.switch_cpus2.op_class::total         183524488                       # Class of executed instruction
system.tol2bus.snoop_filter.tot_requests     13653344                       # Total number of requests made to the snoop filter.
system.tol2bus.snoop_filter.hit_single_requests      6826664                       # Number of requests hitting in the snoop filter with a single holder of the requested data.
system.tol2bus.snoop_filter.hit_multi_requests            0                       # Number of requests hitting in the snoop filter with multiple (>1) holders of the requested data.
system.tol2bus.snoop_filter.tot_snoops         362422                       # Total number of snoops made to the snoop filter.
system.tol2bus.snoop_filter.hit_single_snoops       362422                       # Number of snoops hitting in the snoop filter with a single holder of the requested data.
system.tol2bus.snoop_filter.hit_multi_snoops            0                       # Number of snoops hitting in the snoop filter with multiple (>1) holders of the requested data.
system.tol2bus.pwrStateResidencyTicks::UNDEFINED 371829600310                       # Cumulative time (in ticks) in various power states
system.tol2bus.trans_dist::ReadResp           6178668                       # Transaction distribution
system.tol2bus.trans_dist::WritebackDirty      1211587                       # Transaction distribution
system.tol2bus.trans_dist::WritebackClean       633989                       # Transaction distribution
system.tol2bus.trans_dist::CleanEvict         5965615                       # Transaction distribution
system.tol2bus.trans_dist::ReadExReq           648011                       # Transaction distribution
system.tol2bus.trans_dist::ReadExResp          648011                       # Transaction distribution
system.tol2bus.trans_dist::ReadCleanReq        634005                       # Transaction distribution
system.tol2bus.trans_dist::ReadSharedReq      5544664                       # Transaction distribution
system.tol2bus.pkt_count_system.cpu0.icache.mem_side::system.l2.cpu_side       632806                       # Packet count per connected master and slave (bytes)
system.tol2bus.pkt_count_system.cpu0.dcache.mem_side::system.l2.cpu_side      6174150                       # Packet count per connected master and slave (bytes)
system.tol2bus.pkt_count_system.cpu1.icache.mem_side::system.l2.cpu_side       634885                       # Packet count per connected master and slave (bytes)
system.tol2bus.pkt_count_system.cpu1.dcache.mem_side::system.l2.cpu_side      6204192                       # Packet count per connected master and slave (bytes)
system.tol2bus.pkt_count_system.cpu2.icache.mem_side::system.l2.cpu_side       634307                       # Packet count per connected master and slave (bytes)
system.tol2bus.pkt_count_system.cpu2.dcache.mem_side::system.l2.cpu_side      6199683                       # Packet count per connected master and slave (bytes)
system.tol2bus.pkt_count::total              20480023                       # Packet count per connected master and slave (bytes)
system.tol2bus.pkt_size_system.cpu0.icache.mem_side::system.l2.cpu_side     26999616                       # Cumulative packet size per connected master and slave (bytes)
system.tol2bus.pkt_size_system.cpu0.dcache.mem_side::system.l2.cpu_side    154782848                       # Cumulative packet size per connected master and slave (bytes)
system.tol2bus.pkt_size_system.cpu1.icache.mem_side::system.l2.cpu_side     27088320                       # Cumulative packet size per connected master and slave (bytes)
system.tol2bus.pkt_size_system.cpu1.dcache.mem_side::system.l2.cpu_side    155457792                       # Cumulative packet size per connected master and slave (bytes)
system.tol2bus.pkt_size_system.cpu2.icache.mem_side::system.l2.cpu_side     27063616                       # Cumulative packet size per connected master and slave (bytes)
system.tol2bus.pkt_size_system.cpu2.dcache.mem_side::system.l2.cpu_side    155532160                       # Cumulative packet size per connected master and slave (bytes)
system.tol2bus.pkt_size::total              546924352                       # Cumulative packet size per connected master and slave (bytes)
system.tol2bus.snoops                          984527                       # Total snoops (count)
system.tol2bus.snoopTraffic                   8099968                       # Total snoop traffic (bytes)
system.tol2bus.snoop_fanout::samples          7811207                       # Request fanout histogram
system.tol2bus.snoop_fanout::mean            0.046398                       # Request fanout histogram
system.tol2bus.snoop_fanout::stdev           0.210345                       # Request fanout histogram
system.tol2bus.snoop_fanout::underflows             0      0.00%      0.00% # Request fanout histogram
system.tol2bus.snoop_fanout::0                7448785     95.36%     95.36% # Request fanout histogram
system.tol2bus.snoop_fanout::1                 362422      4.64%    100.00% # Request fanout histogram
system.tol2bus.snoop_fanout::2                      0      0.00%    100.00% # Request fanout histogram
system.tol2bus.snoop_fanout::3                      0      0.00%    100.00% # Request fanout histogram
system.tol2bus.snoop_fanout::4                      0      0.00%    100.00% # Request fanout histogram
system.tol2bus.snoop_fanout::5                      0      0.00%    100.00% # Request fanout histogram
system.tol2bus.snoop_fanout::6                      0      0.00%    100.00% # Request fanout histogram
system.tol2bus.snoop_fanout::7                      0      0.00%    100.00% # Request fanout histogram
system.tol2bus.snoop_fanout::8                      0      0.00%    100.00% # Request fanout histogram
system.tol2bus.snoop_fanout::9                      0      0.00%    100.00% # Request fanout histogram
system.tol2bus.snoop_fanout::10                     0      0.00%    100.00% # Request fanout histogram
system.tol2bus.snoop_fanout::11                     0      0.00%    100.00% # Request fanout histogram
system.tol2bus.snoop_fanout::12                     0      0.00%    100.00% # Request fanout histogram
system.tol2bus.snoop_fanout::overflows              0      0.00%    100.00% # Request fanout histogram
system.tol2bus.snoop_fanout::min_value              0                       # Request fanout histogram
system.tol2bus.snoop_fanout::max_value              1                       # Request fanout histogram
system.tol2bus.snoop_fanout::total            7811207                       # Request fanout histogram
system.tol2bus.reqLayer0.occupancy        14237112876                       # Layer occupancy (ticks)
system.tol2bus.reqLayer0.utilization              3.8                       # Layer utilization (%)
system.tol2bus.respLayer0.occupancy         527377003                       # Layer occupancy (ticks)
system.tol2bus.respLayer0.utilization             0.1                       # Layer utilization (%)
system.tol2bus.respLayer1.occupancy        5144788358                       # Layer occupancy (ticks)
system.tol2bus.respLayer1.utilization             1.4                       # Layer utilization (%)
system.tol2bus.respLayer4.occupancy         529070538                       # Layer occupancy (ticks)
system.tol2bus.respLayer4.utilization             0.1                       # Layer utilization (%)
system.tol2bus.respLayer5.occupancy        5169666080                       # Layer occupancy (ticks)
system.tol2bus.respLayer5.utilization             1.4                       # Layer utilization (%)
system.tol2bus.respLayer8.occupancy         528605703                       # Layer occupancy (ticks)
system.tol2bus.respLayer8.utilization             0.1                       # Layer utilization (%)
system.tol2bus.respLayer9.occupancy        5165945027                       # Layer occupancy (ticks)
system.tol2bus.respLayer9.utilization             1.4                       # Layer utilization (%)

---------- End Simulation Statistics   ----------
