gem5 Simulator System.  http://gem5.org
gem5 is copyrighted software; use the --copyright option for details.

gem5 compiled Nov 23 2016 21:20:46
gem5 started Nov 24 2016 00:54:38
gem5 executing on supreme.cerc.utexas.edu, pid 15908
command line: build/X86/gem5.fast -r --outdir=output/singleCore/calculix configs/example/singleCore.py --cpu-type=detailed --caches --l2cache --cmd=../../../rrip/cpu2006/benchspec/CPU2006/454.calculix/exe/calculix_base.amd64-m64-gcc42-nn --options=../../../rrip/cpu2006/benchspec/CPU2006/454.calculix/data/test/input/beampic --output=output/singleCore/calculix/beampic.log

Global frequency set at 1000000000000 ticks per second
warn: DRAM device capacity (8192 Mbytes) does not match the address range assigned (512 Mbytes)
0: system.remote_gdb.listener: listening for remote gdb on port 7005
warn: ClockedObject: More than one power state change request encountered within the same simulation tick
**** REAL SIMULATION ****
info: Entering event queue @ 0.  Starting simulation...
warn: instruction 'fwait' unimplemented
warn: instruction 'fnclex' unimplemented
info: Increasing stack size by one page.
warn: ignoring syscall access(140737488345696, ...)
info: Increasing stack size by one page.
info: Increasing stack size by one page.
info: Increasing stack size by one page.
info: Increasing stack size by one page.
info: Increasing stack size by one page.
info: Increasing stack size by one page.
info: Increasing stack size by one page.
info: Increasing stack size by one page.
info: Increasing stack size by one page.
info: Increasing stack size by one page.
info: Increasing stack size by one page.
info: Increasing stack size by one page.
info: Increasing stack size by one page.
info: Increasing stack size by one page.
info: Increasing stack size by one page.
info: Increasing stack size by one page.
info: Increasing stack size by one page.
info: Increasing stack size by one page.
info: Increasing stack size by one page.
Exiting @ tick 66798775200 because target called exit()
