
---------- Begin Simulation Statistics ----------
sim_seconds                                  0.000000                       # Number of seconds simulated
sim_ticks                                      141600                       # Number of ticks simulated
final_tick                                     141600                       # Number of ticks from beginning of simulation (restored from checkpoints and never reset)
sim_freq                                 1000000000000                       # Frequency of simulated ticks
host_inst_rate                                    681                       # Simulator instruction rate (inst/s)
host_op_rate                                     1357                       # Simulator op (including micro ops) rate (op/s)
host_tick_rate                               31917275                       # Simulator tick rate (ticks/s)
host_mem_usage                                1289876                       # Number of bytes of host memory used
host_seconds                                     0.00                       # Real time elapsed on the host
sim_insts                                           3                       # Number of instructions simulated
sim_ops                                             6                       # Number of ops (including micro ops) simulated
system.voltage_domain.voltage                       1                       # Voltage in Volts
system.clk_domain.clock                          1000                       # Clock period in ticks
system.mem_ctrls.pwrStateResidencyTicks::UNDEFINED       141600                       # Cumulative time (in ticks) in various power states
system.mem_ctrls.bytes_read::cpu.inst              64                       # Number of bytes read from this memory
system.mem_ctrls.bytes_read::switch_cpus.inst           64                       # Number of bytes read from this memory
system.mem_ctrls.bytes_read::switch_cpus.data           64                       # Number of bytes read from this memory
system.mem_ctrls.bytes_read::total                192                       # Number of bytes read from this memory
system.mem_ctrls.bytes_inst_read::cpu.inst           64                       # Number of instructions bytes read from this memory
system.mem_ctrls.bytes_inst_read::switch_cpus.inst           64                       # Number of instructions bytes read from this memory
system.mem_ctrls.bytes_inst_read::total           128                       # Number of instructions bytes read from this memory
system.mem_ctrls.num_reads::cpu.inst                1                       # Number of read requests responded to by this memory
system.mem_ctrls.num_reads::switch_cpus.inst            1                       # Number of read requests responded to by this memory
system.mem_ctrls.num_reads::switch_cpus.data            1                       # Number of read requests responded to by this memory
system.mem_ctrls.num_reads::total                   3                       # Number of read requests responded to by this memory
system.mem_ctrls.bw_read::cpu.inst          451977401                       # Total read bandwidth from this memory (bytes/s)
system.mem_ctrls.bw_read::switch_cpus.inst    451977401                       # Total read bandwidth from this memory (bytes/s)
system.mem_ctrls.bw_read::switch_cpus.data    451977401                       # Total read bandwidth from this memory (bytes/s)
system.mem_ctrls.bw_read::total            1355932203                       # Total read bandwidth from this memory (bytes/s)
system.mem_ctrls.bw_inst_read::cpu.inst     451977401                       # Instruction read bandwidth from this memory (bytes/s)
system.mem_ctrls.bw_inst_read::switch_cpus.inst    451977401                       # Instruction read bandwidth from this memory (bytes/s)
system.mem_ctrls.bw_inst_read::total        903954802                       # Instruction read bandwidth from this memory (bytes/s)
system.mem_ctrls.bw_total::cpu.inst         451977401                       # Total bandwidth to/from this memory (bytes/s)
system.mem_ctrls.bw_total::switch_cpus.inst    451977401                       # Total bandwidth to/from this memory (bytes/s)
system.mem_ctrls.bw_total::switch_cpus.data    451977401                       # Total bandwidth to/from this memory (bytes/s)
system.mem_ctrls.bw_total::total           1355932203                       # Total bandwidth to/from this memory (bytes/s)
system.mem_ctrls.readReqs                           2                       # Number of read requests accepted
system.mem_ctrls.writeReqs                          0                       # Number of write requests accepted
system.mem_ctrls.readBursts                         2                       # Number of DRAM read bursts, including those serviced by the write queue
system.mem_ctrls.writeBursts                        0                       # Number of DRAM write bursts, including those merged in the write queue
system.mem_ctrls.bytesReadDRAM                    128                       # Total number of bytes read from DRAM
system.mem_ctrls.bytesReadWrQ                       0                       # Total number of bytes read from write queue
system.mem_ctrls.bytesWritten                       0                       # Total number of bytes written to DRAM
system.mem_ctrls.bytesReadSys                     128                       # Total read bytes from the system interface side
system.mem_ctrls.bytesWrittenSys                    0                       # Total written bytes from the system interface side
system.mem_ctrls.servicedByWrQ                      0                       # Number of DRAM read bursts serviced by the write queue
system.mem_ctrls.mergedWrBursts                     0                       # Number of DRAM write bursts merged with an existing one
system.mem_ctrls.neitherReadNorWriteReqs            0                       # Number of requests that are neither read nor write
system.mem_ctrls.perBankRdBursts::0                 0                       # Per bank write bursts
system.mem_ctrls.perBankRdBursts::1                 0                       # Per bank write bursts
system.mem_ctrls.perBankRdBursts::2                 0                       # Per bank write bursts
system.mem_ctrls.perBankRdBursts::3                 1                       # Per bank write bursts
system.mem_ctrls.perBankRdBursts::4                 0                       # Per bank write bursts
system.mem_ctrls.perBankRdBursts::5                 0                       # Per bank write bursts
system.mem_ctrls.perBankRdBursts::6                 0                       # Per bank write bursts
system.mem_ctrls.perBankRdBursts::7                 0                       # Per bank write bursts
system.mem_ctrls.perBankRdBursts::8                 1                       # Per bank write bursts
system.mem_ctrls.perBankRdBursts::9                 0                       # Per bank write bursts
system.mem_ctrls.perBankRdBursts::10                0                       # Per bank write bursts
system.mem_ctrls.perBankRdBursts::11                0                       # Per bank write bursts
system.mem_ctrls.perBankRdBursts::12                0                       # Per bank write bursts
system.mem_ctrls.perBankRdBursts::13                0                       # Per bank write bursts
system.mem_ctrls.perBankRdBursts::14                0                       # Per bank write bursts
system.mem_ctrls.perBankRdBursts::15                0                       # Per bank write bursts
system.mem_ctrls.perBankWrBursts::0                 0                       # Per bank write bursts
system.mem_ctrls.perBankWrBursts::1                 0                       # Per bank write bursts
system.mem_ctrls.perBankWrBursts::2                 0                       # Per bank write bursts
system.mem_ctrls.perBankWrBursts::3                 0                       # Per bank write bursts
system.mem_ctrls.perBankWrBursts::4                 0                       # Per bank write bursts
system.mem_ctrls.perBankWrBursts::5                 0                       # Per bank write bursts
system.mem_ctrls.perBankWrBursts::6                 0                       # Per bank write bursts
system.mem_ctrls.perBankWrBursts::7                 0                       # Per bank write bursts
system.mem_ctrls.perBankWrBursts::8                 0                       # Per bank write bursts
system.mem_ctrls.perBankWrBursts::9                 0                       # Per bank write bursts
system.mem_ctrls.perBankWrBursts::10                0                       # Per bank write bursts
system.mem_ctrls.perBankWrBursts::11                0                       # Per bank write bursts
system.mem_ctrls.perBankWrBursts::12                0                       # Per bank write bursts
system.mem_ctrls.perBankWrBursts::13                0                       # Per bank write bursts
system.mem_ctrls.perBankWrBursts::14                0                       # Per bank write bursts
system.mem_ctrls.perBankWrBursts::15                0                       # Per bank write bursts
system.mem_ctrls.numRdRetry                         0                       # Number of times read queue was full causing retry
system.mem_ctrls.numWrRetry                         0                       # Number of times write queue was full causing retry
system.mem_ctrls.totGap                          1200                       # Total gap between requests
system.mem_ctrls.readPktSize::0                     0                       # Read request sizes (log2)
system.mem_ctrls.readPktSize::1                     0                       # Read request sizes (log2)
system.mem_ctrls.readPktSize::2                     0                       # Read request sizes (log2)
system.mem_ctrls.readPktSize::3                     0                       # Read request sizes (log2)
system.mem_ctrls.readPktSize::4                     0                       # Read request sizes (log2)
system.mem_ctrls.readPktSize::5                     0                       # Read request sizes (log2)
system.mem_ctrls.readPktSize::6                     2                       # Read request sizes (log2)
system.mem_ctrls.writePktSize::0                    0                       # Write request sizes (log2)
system.mem_ctrls.writePktSize::1                    0                       # Write request sizes (log2)
system.mem_ctrls.writePktSize::2                    0                       # Write request sizes (log2)
system.mem_ctrls.writePktSize::3                    0                       # Write request sizes (log2)
system.mem_ctrls.writePktSize::4                    0                       # Write request sizes (log2)
system.mem_ctrls.writePktSize::5                    0                       # Write request sizes (log2)
system.mem_ctrls.writePktSize::6                    0                       # Write request sizes (log2)
system.mem_ctrls.rdQLenPdf::0                       1                       # What read queue length does an incoming req see
system.mem_ctrls.rdQLenPdf::1                       1                       # What read queue length does an incoming req see
system.mem_ctrls.rdQLenPdf::2                       0                       # What read queue length does an incoming req see
system.mem_ctrls.rdQLenPdf::3                       0                       # What read queue length does an incoming req see
system.mem_ctrls.rdQLenPdf::4                       0                       # What read queue length does an incoming req see
system.mem_ctrls.rdQLenPdf::5                       0                       # What read queue length does an incoming req see
system.mem_ctrls.rdQLenPdf::6                       0                       # What read queue length does an incoming req see
system.mem_ctrls.rdQLenPdf::7                       0                       # What read queue length does an incoming req see
system.mem_ctrls.rdQLenPdf::8                       0                       # What read queue length does an incoming req see
system.mem_ctrls.rdQLenPdf::9                       0                       # What read queue length does an incoming req see
system.mem_ctrls.rdQLenPdf::10                      0                       # What read queue length does an incoming req see
system.mem_ctrls.rdQLenPdf::11                      0                       # What read queue length does an incoming req see
system.mem_ctrls.rdQLenPdf::12                      0                       # What read queue length does an incoming req see
system.mem_ctrls.rdQLenPdf::13                      0                       # What read queue length does an incoming req see
system.mem_ctrls.rdQLenPdf::14                      0                       # What read queue length does an incoming req see
system.mem_ctrls.rdQLenPdf::15                      0                       # What read queue length does an incoming req see
system.mem_ctrls.rdQLenPdf::16                      0                       # What read queue length does an incoming req see
system.mem_ctrls.rdQLenPdf::17                      0                       # What read queue length does an incoming req see
system.mem_ctrls.rdQLenPdf::18                      0                       # What read queue length does an incoming req see
system.mem_ctrls.rdQLenPdf::19                      0                       # What read queue length does an incoming req see
system.mem_ctrls.rdQLenPdf::20                      0                       # What read queue length does an incoming req see
system.mem_ctrls.rdQLenPdf::21                      0                       # What read queue length does an incoming req see
system.mem_ctrls.rdQLenPdf::22                      0                       # What read queue length does an incoming req see
system.mem_ctrls.rdQLenPdf::23                      0                       # What read queue length does an incoming req see
system.mem_ctrls.rdQLenPdf::24                      0                       # What read queue length does an incoming req see
system.mem_ctrls.rdQLenPdf::25                      0                       # What read queue length does an incoming req see
system.mem_ctrls.rdQLenPdf::26                      0                       # What read queue length does an incoming req see
system.mem_ctrls.rdQLenPdf::27                      0                       # What read queue length does an incoming req see
system.mem_ctrls.rdQLenPdf::28                      0                       # What read queue length does an incoming req see
system.mem_ctrls.rdQLenPdf::29                      0                       # What read queue length does an incoming req see
system.mem_ctrls.rdQLenPdf::30                      0                       # What read queue length does an incoming req see
system.mem_ctrls.rdQLenPdf::31                      0                       # What read queue length does an incoming req see
system.mem_ctrls.wrQLenPdf::0                       0                       # What write queue length does an incoming req see
system.mem_ctrls.wrQLenPdf::1                       0                       # What write queue length does an incoming req see
system.mem_ctrls.wrQLenPdf::2                       0                       # What write queue length does an incoming req see
system.mem_ctrls.wrQLenPdf::3                       0                       # What write queue length does an incoming req see
system.mem_ctrls.wrQLenPdf::4                       0                       # What write queue length does an incoming req see
system.mem_ctrls.wrQLenPdf::5                       0                       # What write queue length does an incoming req see
system.mem_ctrls.wrQLenPdf::6                       0                       # What write queue length does an incoming req see
system.mem_ctrls.wrQLenPdf::7                       0                       # What write queue length does an incoming req see
system.mem_ctrls.wrQLenPdf::8                       0                       # What write queue length does an incoming req see
system.mem_ctrls.wrQLenPdf::9                       0                       # What write queue length does an incoming req see
system.mem_ctrls.wrQLenPdf::10                      0                       # What write queue length does an incoming req see
system.mem_ctrls.wrQLenPdf::11                      0                       # What write queue length does an incoming req see
system.mem_ctrls.wrQLenPdf::12                      0                       # What write queue length does an incoming req see
system.mem_ctrls.wrQLenPdf::13                      0                       # What write queue length does an incoming req see
system.mem_ctrls.wrQLenPdf::14                      0                       # What write queue length does an incoming req see
system.mem_ctrls.wrQLenPdf::15                      0                       # What write queue length does an incoming req see
system.mem_ctrls.wrQLenPdf::16                      0                       # What write queue length does an incoming req see
system.mem_ctrls.wrQLenPdf::17                      0                       # What write queue length does an incoming req see
system.mem_ctrls.wrQLenPdf::18                      0                       # What write queue length does an incoming req see
system.mem_ctrls.wrQLenPdf::19                      0                       # What write queue length does an incoming req see
system.mem_ctrls.wrQLenPdf::20                      0                       # What write queue length does an incoming req see
system.mem_ctrls.wrQLenPdf::21                      0                       # What write queue length does an incoming req see
system.mem_ctrls.wrQLenPdf::22                      0                       # What write queue length does an incoming req see
system.mem_ctrls.wrQLenPdf::23                      0                       # What write queue length does an incoming req see
system.mem_ctrls.wrQLenPdf::24                      0                       # What write queue length does an incoming req see
system.mem_ctrls.wrQLenPdf::25                      0                       # What write queue length does an incoming req see
system.mem_ctrls.wrQLenPdf::26                      0                       # What write queue length does an incoming req see
system.mem_ctrls.wrQLenPdf::27                      0                       # What write queue length does an incoming req see
system.mem_ctrls.wrQLenPdf::28                      0                       # What write queue length does an incoming req see
system.mem_ctrls.wrQLenPdf::29                      0                       # What write queue length does an incoming req see
system.mem_ctrls.wrQLenPdf::30                      0                       # What write queue length does an incoming req see
system.mem_ctrls.wrQLenPdf::31                      0                       # What write queue length does an incoming req see
system.mem_ctrls.wrQLenPdf::32                      0                       # What write queue length does an incoming req see
system.mem_ctrls.wrQLenPdf::33                      0                       # What write queue length does an incoming req see
system.mem_ctrls.wrQLenPdf::34                      0                       # What write queue length does an incoming req see
system.mem_ctrls.wrQLenPdf::35                      0                       # What write queue length does an incoming req see
system.mem_ctrls.wrQLenPdf::36                      0                       # What write queue length does an incoming req see
system.mem_ctrls.wrQLenPdf::37                      0                       # What write queue length does an incoming req see
system.mem_ctrls.wrQLenPdf::38                      0                       # What write queue length does an incoming req see
system.mem_ctrls.wrQLenPdf::39                      0                       # What write queue length does an incoming req see
system.mem_ctrls.wrQLenPdf::40                      0                       # What write queue length does an incoming req see
system.mem_ctrls.wrQLenPdf::41                      0                       # What write queue length does an incoming req see
system.mem_ctrls.wrQLenPdf::42                      0                       # What write queue length does an incoming req see
system.mem_ctrls.wrQLenPdf::43                      0                       # What write queue length does an incoming req see
system.mem_ctrls.wrQLenPdf::44                      0                       # What write queue length does an incoming req see
system.mem_ctrls.wrQLenPdf::45                      0                       # What write queue length does an incoming req see
system.mem_ctrls.wrQLenPdf::46                      0                       # What write queue length does an incoming req see
system.mem_ctrls.wrQLenPdf::47                      0                       # What write queue length does an incoming req see
system.mem_ctrls.wrQLenPdf::48                      0                       # What write queue length does an incoming req see
system.mem_ctrls.wrQLenPdf::49                      0                       # What write queue length does an incoming req see
system.mem_ctrls.wrQLenPdf::50                      0                       # What write queue length does an incoming req see
system.mem_ctrls.wrQLenPdf::51                      0                       # What write queue length does an incoming req see
system.mem_ctrls.wrQLenPdf::52                      0                       # What write queue length does an incoming req see
system.mem_ctrls.wrQLenPdf::53                      0                       # What write queue length does an incoming req see
system.mem_ctrls.wrQLenPdf::54                      0                       # What write queue length does an incoming req see
system.mem_ctrls.wrQLenPdf::55                      0                       # What write queue length does an incoming req see
system.mem_ctrls.wrQLenPdf::56                      0                       # What write queue length does an incoming req see
system.mem_ctrls.wrQLenPdf::57                      0                       # What write queue length does an incoming req see
system.mem_ctrls.wrQLenPdf::58                      0                       # What write queue length does an incoming req see
system.mem_ctrls.wrQLenPdf::59                      0                       # What write queue length does an incoming req see
system.mem_ctrls.wrQLenPdf::60                      0                       # What write queue length does an incoming req see
system.mem_ctrls.wrQLenPdf::61                      0                       # What write queue length does an incoming req see
system.mem_ctrls.wrQLenPdf::62                      0                       # What write queue length does an incoming req see
system.mem_ctrls.wrQLenPdf::63                      0                       # What write queue length does an incoming req see
system.mem_ctrls.totQLat                        33800                       # Total ticks spent queuing
system.mem_ctrls.totMemAccLat                   71300                       # Total ticks spent from burst creation until serviced by the DRAM
system.mem_ctrls.totBusLat                      10000                       # Total ticks spent in databus transfers
system.mem_ctrls.avgQLat                     16900.00                       # Average queueing delay per DRAM burst
system.mem_ctrls.avgBusLat                    5000.00                       # Average bus latency per DRAM burst
system.mem_ctrls.avgMemAccLat                35650.00                       # Average memory access latency per DRAM burst
system.mem_ctrls.avgRdBW                       903.95                       # Average DRAM read bandwidth in MiByte/s
system.mem_ctrls.avgWrBW                         0.00                       # Average achieved write bandwidth in MiByte/s
system.mem_ctrls.avgRdBWSys                    903.95                       # Average system read bandwidth in MiByte/s
system.mem_ctrls.avgWrBWSys                      0.00                       # Average system write bandwidth in MiByte/s
system.mem_ctrls.peakBW                      12800.00                       # Theoretical peak bandwidth in MiByte/s
system.mem_ctrls.busUtil                         7.06                       # Data bus utilization in percentage
system.mem_ctrls.busUtilRead                     7.06                       # Data bus utilization in percentage for reads
system.mem_ctrls.busUtilWrite                    0.00                       # Data bus utilization in percentage for writes
system.mem_ctrls.avgRdQLen                       1.13                       # Average read queue length when enqueuing
system.mem_ctrls.avgWrQLen                       0.00                       # Average write queue length when enqueuing
system.mem_ctrls.readRowHits                        0                       # Number of row buffer hits during reads
system.mem_ctrls.writeRowHits                       0                       # Number of row buffer hits during writes
system.mem_ctrls.readRowHitRate                  0.00                       # Row buffer hit rate for reads
system.mem_ctrls.writeRowHitRate                  nan                       # Row buffer hit rate for writes
system.mem_ctrls.avgGap                        600.00                       # Average gap between requests
system.mem_ctrls.pageHitRate                     0.00                       # Row buffer hit rate, read and write combined
system.mem_ctrls_0.actEnergy                     7140                       # Energy for activate commands per rank (pJ)
system.mem_ctrls_0.preEnergy                        0                       # Energy for precharge commands per rank (pJ)
system.mem_ctrls_0.readEnergy                    7140                       # Energy for read commands per rank (pJ)
system.mem_ctrls_0.writeEnergy                      0                       # Energy for write commands per rank (pJ)
system.mem_ctrls_0.refreshEnergy                    0                       # Energy for refresh commands per rank (pJ)
system.mem_ctrls_0.actBackEnergy                14820                       # Energy for active background per rank (pJ)
system.mem_ctrls_0.preBackEnergy                23040                       # Energy for precharge background per rank (pJ)
system.mem_ctrls_0.actPowerDownEnergy           22230                       # Energy for active power-down per rank (pJ)
system.mem_ctrls_0.prePowerDownEnergy               0                       # Energy for precharge power-down per rank (pJ)
system.mem_ctrls_0.selfRefreshEnergy                0                       # Energy for self refresh per rank (pJ)
system.mem_ctrls_0.totalEnergy                  74370                       # Total energy per rank (pJ)
system.mem_ctrls_0.averagePower            526.513274                       # Core power per rank (mW)
system.mem_ctrls_0.totalIdleTime                    0                       # Total Idle time Per DRAM Rank
system.mem_ctrls_0.memoryStateTime::IDLE        60000                       # Time in different power states
system.mem_ctrls_0.memoryStateTime::REF             0                       # Time in different power states
system.mem_ctrls_0.memoryStateTime::SREF            0                       # Time in different power states
system.mem_ctrls_0.memoryStateTime::PRE_PDN            0                       # Time in different power states
system.mem_ctrls_0.memoryStateTime::ACT         32500                       # Time in different power states
system.mem_ctrls_0.memoryStateTime::ACT_PDN        48300                       # Time in different power states
system.mem_ctrls_1.actEnergy                     7140                       # Energy for activate commands per rank (pJ)
system.mem_ctrls_1.preEnergy                        0                       # Energy for precharge commands per rank (pJ)
system.mem_ctrls_1.readEnergy                    7140                       # Energy for read commands per rank (pJ)
system.mem_ctrls_1.writeEnergy                      0                       # Energy for write commands per rank (pJ)
system.mem_ctrls_1.refreshEnergy                    0                       # Energy for refresh commands per rank (pJ)
system.mem_ctrls_1.actBackEnergy                17670                       # Energy for active background per rank (pJ)
system.mem_ctrls_1.preBackEnergy                23520                       # Energy for precharge background per rank (pJ)
system.mem_ctrls_1.actPowerDownEnergy           18810                       # Energy for active power-down per rank (pJ)
system.mem_ctrls_1.prePowerDownEnergy               0                       # Energy for precharge power-down per rank (pJ)
system.mem_ctrls_1.selfRefreshEnergy                0                       # Energy for self refresh per rank (pJ)
system.mem_ctrls_1.totalEnergy                  74280                       # Total energy per rank (pJ)
system.mem_ctrls_1.averagePower            525.876106                       # Core power per rank (mW)
system.mem_ctrls_1.totalIdleTime                    0                       # Total Idle time Per DRAM Rank
system.mem_ctrls_1.memoryStateTime::IDLE        61200                       # Time in different power states
system.mem_ctrls_1.memoryStateTime::REF             0                       # Time in different power states
system.mem_ctrls_1.memoryStateTime::SREF            0                       # Time in different power states
system.mem_ctrls_1.memoryStateTime::PRE_PDN            0                       # Time in different power states
system.mem_ctrls_1.memoryStateTime::ACT         38800                       # Time in different power states
system.mem_ctrls_1.memoryStateTime::ACT_PDN        40800                       # Time in different power states
system.pwrStateResidencyTicks::UNDEFINED       141600                       # Cumulative time (in ticks) in various power states
system.cpu_voltage_domain.voltage                   1                       # Voltage in Volts
system.cpu_clk_domain.clock                       400                       # Clock period in ticks
system.cpu.dtb.walker.pwrStateResidencyTicks::UNDEFINED       141600                       # Cumulative time (in ticks) in various power states
system.cpu.apic_clk_domain.clock                 6400                       # Clock period in ticks
system.cpu.interrupts.pwrStateResidencyTicks::UNDEFINED       141600                       # Cumulative time (in ticks) in various power states
system.cpu.itb.walker.pwrStateResidencyTicks::UNDEFINED       141600                       # Cumulative time (in ticks) in various power states
system.cpu.workload.num_syscalls                    0                       # Number of system calls
system.cpu.pwrStateResidencyTicks::ON          141600                       # Cumulative time (in ticks) in various power states
system.cpu.numCycles                                2                       # number of cpu cycles simulated
system.cpu.numWorkItemsStarted                      0                       # number of work items this cpu started
system.cpu.numWorkItemsCompleted                    0                       # number of work items this cpu completed
system.cpu.committedInsts                           1                       # Number of instructions committed
system.cpu.committedOps                             1                       # Number of ops (including micro ops) committed
system.cpu.num_int_alu_accesses                     1                       # Number of integer alu accesses
system.cpu.num_fp_alu_accesses                      0                       # Number of float alu accesses
system.cpu.num_func_calls                           0                       # number of times a function call or return occured
system.cpu.num_conditional_control_insts            0                       # number of instructions that are conditional controls
system.cpu.num_int_insts                            1                       # number of integer instructions
system.cpu.num_fp_insts                             0                       # number of float instructions
system.cpu.num_int_register_reads                   3                       # number of times the integer registers were read
system.cpu.num_int_register_writes                  1                       # number of times the integer registers were written
system.cpu.num_fp_register_reads                    0                       # number of times the floating registers were read
system.cpu.num_fp_register_writes                   0                       # number of times the floating registers were written
system.cpu.num_mem_refs                             0                       # number of memory refs
system.cpu.num_load_insts                           0                       # Number of load instructions
system.cpu.num_store_insts                          0                       # Number of store instructions
system.cpu.num_idle_cycles                          0                       # Number of idle cycles
system.cpu.num_busy_cycles                          2                       # Number of busy cycles
system.cpu.not_idle_fraction                        1                       # Percentage of non-idle cycles
system.cpu.idle_fraction                            0                       # Percentage of idle cycles
system.cpu.op_class::No_OpClass                     0      0.00%      0.00% # Class of executed instruction
system.cpu.op_class::IntAlu                         1    100.00%    100.00% # Class of executed instruction
system.cpu.op_class::IntMult                        0      0.00%    100.00% # Class of executed instruction
system.cpu.op_class::IntDiv                         0      0.00%    100.00% # Class of executed instruction
system.cpu.op_class::FloatAdd                       0      0.00%    100.00% # Class of executed instruction
system.cpu.op_class::FloatCmp                       0      0.00%    100.00% # Class of executed instruction
system.cpu.op_class::FloatCvt                       0      0.00%    100.00% # Class of executed instruction
system.cpu.op_class::FloatMult                      0      0.00%    100.00% # Class of executed instruction
system.cpu.op_class::FloatMultAcc                   0      0.00%    100.00% # Class of executed instruction
system.cpu.op_class::FloatDiv                       0      0.00%    100.00% # Class of executed instruction
system.cpu.op_class::FloatMisc                      0      0.00%    100.00% # Class of executed instruction
system.cpu.op_class::FloatSqrt                      0      0.00%    100.00% # Class of executed instruction
system.cpu.op_class::SimdAdd                        0      0.00%    100.00% # Class of executed instruction
system.cpu.op_class::SimdAddAcc                     0      0.00%    100.00% # Class of executed instruction
system.cpu.op_class::SimdAlu                        0      0.00%    100.00% # Class of executed instruction
system.cpu.op_class::SimdCmp                        0      0.00%    100.00% # Class of executed instruction
system.cpu.op_class::SimdCvt                        0      0.00%    100.00% # Class of executed instruction
system.cpu.op_class::SimdMisc                       0      0.00%    100.00% # Class of executed instruction
system.cpu.op_class::SimdMult                       0      0.00%    100.00% # Class of executed instruction
system.cpu.op_class::SimdMultAcc                    0      0.00%    100.00% # Class of executed instruction
system.cpu.op_class::SimdShift                      0      0.00%    100.00% # Class of executed instruction
system.cpu.op_class::SimdShiftAcc                   0      0.00%    100.00% # Class of executed instruction
system.cpu.op_class::SimdSqrt                       0      0.00%    100.00% # Class of executed instruction
system.cpu.op_class::SimdFloatAdd                   0      0.00%    100.00% # Class of executed instruction
system.cpu.op_class::SimdFloatAlu                   0      0.00%    100.00% # Class of executed instruction
system.cpu.op_class::SimdFloatCmp                   0      0.00%    100.00% # Class of executed instruction
system.cpu.op_class::SimdFloatCvt                   0      0.00%    100.00% # Class of executed instruction
system.cpu.op_class::SimdFloatDiv                   0      0.00%    100.00% # Class of executed instruction
system.cpu.op_class::SimdFloatMisc                  0      0.00%    100.00% # Class of executed instruction
system.cpu.op_class::SimdFloatMult                  0      0.00%    100.00% # Class of executed instruction
system.cpu.op_class::SimdFloatMultAcc               0      0.00%    100.00% # Class of executed instruction
system.cpu.op_class::SimdFloatSqrt                  0      0.00%    100.00% # Class of executed instruction
system.cpu.op_class::MemRead                        0      0.00%    100.00% # Class of executed instruction
system.cpu.op_class::MemWrite                       0      0.00%    100.00% # Class of executed instruction
system.cpu.op_class::FloatMemRead                   0      0.00%    100.00% # Class of executed instruction
system.cpu.op_class::FloatMemWrite                  0      0.00%    100.00% # Class of executed instruction
system.cpu.op_class::IprAccess                      0      0.00%    100.00% # Class of executed instruction
system.cpu.op_class::InstPrefetch                   0      0.00%    100.00% # Class of executed instruction
system.cpu.op_class::total                          1                       # Class of executed instruction
system.cpu.dcache.tags.pwrStateResidencyTicks::UNDEFINED       141600                       # Cumulative time (in ticks) in various power states
system.cpu.dcache.tags.replacements                 0                       # number of replacements
system.cpu.dcache.tags.tagsinuse             0.014131                       # Cycle average of tags in use
system.cpu.dcache.tags.total_refs                   0                       # Total number of references to valid blocks.
system.cpu.dcache.tags.sampled_refs                 0                       # Sample count of references to valid blocks.
system.cpu.dcache.tags.avg_refs                   nan                       # Average number of references to valid blocks.
system.cpu.dcache.tags.warmup_cycle                 0                       # Cycle when the warmup percentage was hit.
system.cpu.dcache.tags.occ_blocks::switch_cpus.data     0.014131                       # Average occupied blocks per requestor
system.cpu.dcache.tags.occ_percent::switch_cpus.data     0.000028                       # Average percentage of cache occupancy
system.cpu.dcache.tags.occ_percent::total     0.000028                       # Average percentage of cache occupancy
system.cpu.dcache.tags.occ_task_id_blocks::1024            1                       # Occupied blocks per task id
system.cpu.dcache.tags.age_task_id_blocks_1024::0            1                       # Occupied blocks per task id
system.cpu.dcache.tags.occ_task_id_percent::1024     0.001953                       # Percentage of cache occupancy per task id
system.cpu.dcache.tags.tag_accesses                 9                       # Number of tag accesses
system.cpu.dcache.tags.data_accesses                9                       # Number of data accesses
system.cpu.dcache.pwrStateResidencyTicks::UNDEFINED       141600                       # Cumulative time (in ticks) in various power states
system.cpu.dcache.ReadReq_misses::switch_cpus.data            1                       # number of ReadReq misses
system.cpu.dcache.ReadReq_misses::total             1                       # number of ReadReq misses
system.cpu.dcache.demand_misses::switch_cpus.data            1                       # number of demand (read+write) misses
system.cpu.dcache.demand_misses::total              1                       # number of demand (read+write) misses
system.cpu.dcache.overall_misses::switch_cpus.data            1                       # number of overall misses
system.cpu.dcache.overall_misses::total             1                       # number of overall misses
system.cpu.dcache.ReadReq_miss_latency::switch_cpus.data        87600                       # number of ReadReq miss cycles
system.cpu.dcache.ReadReq_miss_latency::total        87600                       # number of ReadReq miss cycles
system.cpu.dcache.demand_miss_latency::switch_cpus.data        87600                       # number of demand (read+write) miss cycles
system.cpu.dcache.demand_miss_latency::total        87600                       # number of demand (read+write) miss cycles
system.cpu.dcache.overall_miss_latency::switch_cpus.data        87600                       # number of overall miss cycles
system.cpu.dcache.overall_miss_latency::total        87600                       # number of overall miss cycles
system.cpu.dcache.ReadReq_accesses::switch_cpus.data            1                       # number of ReadReq accesses(hits+misses)
system.cpu.dcache.ReadReq_accesses::total            1                       # number of ReadReq accesses(hits+misses)
system.cpu.dcache.demand_accesses::switch_cpus.data            1                       # number of demand (read+write) accesses
system.cpu.dcache.demand_accesses::total            1                       # number of demand (read+write) accesses
system.cpu.dcache.overall_accesses::switch_cpus.data            1                       # number of overall (read+write) accesses
system.cpu.dcache.overall_accesses::total            1                       # number of overall (read+write) accesses
system.cpu.dcache.ReadReq_miss_rate::switch_cpus.data            1                       # miss rate for ReadReq accesses
system.cpu.dcache.ReadReq_miss_rate::total            1                       # miss rate for ReadReq accesses
system.cpu.dcache.demand_miss_rate::switch_cpus.data            1                       # miss rate for demand accesses
system.cpu.dcache.demand_miss_rate::total            1                       # miss rate for demand accesses
system.cpu.dcache.overall_miss_rate::switch_cpus.data            1                       # miss rate for overall accesses
system.cpu.dcache.overall_miss_rate::total            1                       # miss rate for overall accesses
system.cpu.dcache.ReadReq_avg_miss_latency::switch_cpus.data        87600                       # average ReadReq miss latency
system.cpu.dcache.ReadReq_avg_miss_latency::total        87600                       # average ReadReq miss latency
system.cpu.dcache.demand_avg_miss_latency::switch_cpus.data        87600                       # average overall miss latency
system.cpu.dcache.demand_avg_miss_latency::total        87600                       # average overall miss latency
system.cpu.dcache.overall_avg_miss_latency::switch_cpus.data        87600                       # average overall miss latency
system.cpu.dcache.overall_avg_miss_latency::total        87600                       # average overall miss latency
system.cpu.dcache.blocked_cycles::no_mshrs            0                       # number of cycles access was blocked
system.cpu.dcache.blocked_cycles::no_targets            0                       # number of cycles access was blocked
system.cpu.dcache.blocked::no_mshrs                 0                       # number of cycles access was blocked
system.cpu.dcache.blocked::no_targets               0                       # number of cycles access was blocked
system.cpu.dcache.avg_blocked_cycles::no_mshrs          nan                       # average number of cycles each access was blocked
system.cpu.dcache.avg_blocked_cycles::no_targets          nan                       # average number of cycles each access was blocked
system.cpu.dcache.ReadReq_mshr_misses::switch_cpus.data            1                       # number of ReadReq MSHR misses
system.cpu.dcache.ReadReq_mshr_misses::total            1                       # number of ReadReq MSHR misses
system.cpu.dcache.demand_mshr_misses::switch_cpus.data            1                       # number of demand (read+write) MSHR misses
system.cpu.dcache.demand_mshr_misses::total            1                       # number of demand (read+write) MSHR misses
system.cpu.dcache.overall_mshr_misses::switch_cpus.data            1                       # number of overall MSHR misses
system.cpu.dcache.overall_mshr_misses::total            1                       # number of overall MSHR misses
system.cpu.dcache.ReadReq_mshr_miss_latency::switch_cpus.data        86800                       # number of ReadReq MSHR miss cycles
system.cpu.dcache.ReadReq_mshr_miss_latency::total        86800                       # number of ReadReq MSHR miss cycles
system.cpu.dcache.demand_mshr_miss_latency::switch_cpus.data        86800                       # number of demand (read+write) MSHR miss cycles
system.cpu.dcache.demand_mshr_miss_latency::total        86800                       # number of demand (read+write) MSHR miss cycles
system.cpu.dcache.overall_mshr_miss_latency::switch_cpus.data        86800                       # number of overall MSHR miss cycles
system.cpu.dcache.overall_mshr_miss_latency::total        86800                       # number of overall MSHR miss cycles
system.cpu.dcache.ReadReq_mshr_miss_rate::switch_cpus.data            1                       # mshr miss rate for ReadReq accesses
system.cpu.dcache.ReadReq_mshr_miss_rate::total            1                       # mshr miss rate for ReadReq accesses
system.cpu.dcache.demand_mshr_miss_rate::switch_cpus.data            1                       # mshr miss rate for demand accesses
system.cpu.dcache.demand_mshr_miss_rate::total            1                       # mshr miss rate for demand accesses
system.cpu.dcache.overall_mshr_miss_rate::switch_cpus.data            1                       # mshr miss rate for overall accesses
system.cpu.dcache.overall_mshr_miss_rate::total            1                       # mshr miss rate for overall accesses
system.cpu.dcache.ReadReq_avg_mshr_miss_latency::switch_cpus.data        86800                       # average ReadReq mshr miss latency
system.cpu.dcache.ReadReq_avg_mshr_miss_latency::total        86800                       # average ReadReq mshr miss latency
system.cpu.dcache.demand_avg_mshr_miss_latency::switch_cpus.data        86800                       # average overall mshr miss latency
system.cpu.dcache.demand_avg_mshr_miss_latency::total        86800                       # average overall mshr miss latency
system.cpu.dcache.overall_avg_mshr_miss_latency::switch_cpus.data        86800                       # average overall mshr miss latency
system.cpu.dcache.overall_avg_mshr_miss_latency::total        86800                       # average overall mshr miss latency
system.cpu.dtb_walker_cache.tags.pwrStateResidencyTicks::UNDEFINED       141600                       # Cumulative time (in ticks) in various power states
system.cpu.dtb_walker_cache.tags.replacements            0                       # number of replacements
system.cpu.dtb_walker_cache.tags.tagsinuse            0                       # Cycle average of tags in use
system.cpu.dtb_walker_cache.tags.total_refs            0                       # Total number of references to valid blocks.
system.cpu.dtb_walker_cache.tags.sampled_refs            0                       # Sample count of references to valid blocks.
system.cpu.dtb_walker_cache.tags.avg_refs          nan                       # Average number of references to valid blocks.
system.cpu.dtb_walker_cache.tags.warmup_cycle            0                       # Cycle when the warmup percentage was hit.
system.cpu.dtb_walker_cache.tags.tag_accesses            0                       # Number of tag accesses
system.cpu.dtb_walker_cache.tags.data_accesses            0                       # Number of data accesses
system.cpu.dtb_walker_cache.pwrStateResidencyTicks::UNDEFINED       141600                       # Cumulative time (in ticks) in various power states
system.cpu.dtb_walker_cache.blocked_cycles::no_mshrs            0                       # number of cycles access was blocked
system.cpu.dtb_walker_cache.blocked_cycles::no_targets            0                       # number of cycles access was blocked
system.cpu.dtb_walker_cache.blocked::no_mshrs            0                       # number of cycles access was blocked
system.cpu.dtb_walker_cache.blocked::no_targets            0                       # number of cycles access was blocked
system.cpu.dtb_walker_cache.avg_blocked_cycles::no_mshrs          nan                       # average number of cycles each access was blocked
system.cpu.dtb_walker_cache.avg_blocked_cycles::no_targets          nan                       # average number of cycles each access was blocked
system.cpu.icache.tags.pwrStateResidencyTicks::UNDEFINED       141600                       # Cumulative time (in ticks) in various power states
system.cpu.icache.tags.replacements                 0                       # number of replacements
system.cpu.icache.tags.tagsinuse             1.062154                       # Cycle average of tags in use
system.cpu.icache.tags.total_refs                   0                       # Total number of references to valid blocks.
system.cpu.icache.tags.sampled_refs                 0                       # Sample count of references to valid blocks.
system.cpu.icache.tags.avg_refs                   nan                       # Average number of references to valid blocks.
system.cpu.icache.tags.warmup_cycle                 0                       # Cycle when the warmup percentage was hit.
system.cpu.icache.tags.occ_blocks::cpu.inst     0.997175                       # Average occupied blocks per requestor
system.cpu.icache.tags.occ_blocks::switch_cpus.inst     0.064978                       # Average occupied blocks per requestor
system.cpu.icache.tags.occ_percent::cpu.inst     0.001948                       # Average percentage of cache occupancy
system.cpu.icache.tags.occ_percent::switch_cpus.inst     0.000127                       # Average percentage of cache occupancy
system.cpu.icache.tags.occ_percent::total     0.002075                       # Average percentage of cache occupancy
system.cpu.icache.tags.occ_task_id_blocks::1024            2                       # Occupied blocks per task id
system.cpu.icache.tags.age_task_id_blocks_1024::0            2                       # Occupied blocks per task id
system.cpu.icache.tags.occ_task_id_percent::1024     0.003906                       # Percentage of cache occupancy per task id
system.cpu.icache.tags.tag_accesses                42                       # Number of tag accesses
system.cpu.icache.tags.data_accesses               42                       # Number of data accesses
system.cpu.icache.pwrStateResidencyTicks::UNDEFINED       141600                       # Cumulative time (in ticks) in various power states
system.cpu.icache.ReadReq_hits::cpu.inst            1                       # number of ReadReq hits
system.cpu.icache.ReadReq_hits::switch_cpus.inst            1                       # number of ReadReq hits
system.cpu.icache.ReadReq_hits::total               2                       # number of ReadReq hits
system.cpu.icache.demand_hits::cpu.inst             1                       # number of demand (read+write) hits
system.cpu.icache.demand_hits::switch_cpus.inst            1                       # number of demand (read+write) hits
system.cpu.icache.demand_hits::total                2                       # number of demand (read+write) hits
system.cpu.icache.overall_hits::cpu.inst            1                       # number of overall hits
system.cpu.icache.overall_hits::switch_cpus.inst            1                       # number of overall hits
system.cpu.icache.overall_hits::total               2                       # number of overall hits
system.cpu.icache.ReadReq_misses::cpu.inst            1                       # number of ReadReq misses
system.cpu.icache.ReadReq_misses::switch_cpus.inst            2                       # number of ReadReq misses
system.cpu.icache.ReadReq_misses::total             3                       # number of ReadReq misses
system.cpu.icache.demand_misses::cpu.inst            1                       # number of demand (read+write) misses
system.cpu.icache.demand_misses::switch_cpus.inst            2                       # number of demand (read+write) misses
system.cpu.icache.demand_misses::total              3                       # number of demand (read+write) misses
system.cpu.icache.overall_misses::cpu.inst            1                       # number of overall misses
system.cpu.icache.overall_misses::switch_cpus.inst            2                       # number of overall misses
system.cpu.icache.overall_misses::total             3                       # number of overall misses
system.cpu.icache.ReadReq_miss_latency::switch_cpus.inst        81600                       # number of ReadReq miss cycles
system.cpu.icache.ReadReq_miss_latency::total        81600                       # number of ReadReq miss cycles
system.cpu.icache.demand_miss_latency::switch_cpus.inst        81600                       # number of demand (read+write) miss cycles
system.cpu.icache.demand_miss_latency::total        81600                       # number of demand (read+write) miss cycles
system.cpu.icache.overall_miss_latency::switch_cpus.inst        81600                       # number of overall miss cycles
system.cpu.icache.overall_miss_latency::total        81600                       # number of overall miss cycles
system.cpu.icache.ReadReq_accesses::cpu.inst            2                       # number of ReadReq accesses(hits+misses)
system.cpu.icache.ReadReq_accesses::switch_cpus.inst            3                       # number of ReadReq accesses(hits+misses)
system.cpu.icache.ReadReq_accesses::total            5                       # number of ReadReq accesses(hits+misses)
system.cpu.icache.demand_accesses::cpu.inst            2                       # number of demand (read+write) accesses
system.cpu.icache.demand_accesses::switch_cpus.inst            3                       # number of demand (read+write) accesses
system.cpu.icache.demand_accesses::total            5                       # number of demand (read+write) accesses
system.cpu.icache.overall_accesses::cpu.inst            2                       # number of overall (read+write) accesses
system.cpu.icache.overall_accesses::switch_cpus.inst            3                       # number of overall (read+write) accesses
system.cpu.icache.overall_accesses::total            5                       # number of overall (read+write) accesses
system.cpu.icache.ReadReq_miss_rate::cpu.inst     0.500000                       # miss rate for ReadReq accesses
system.cpu.icache.ReadReq_miss_rate::switch_cpus.inst     0.666667                       # miss rate for ReadReq accesses
system.cpu.icache.ReadReq_miss_rate::total     0.600000                       # miss rate for ReadReq accesses
system.cpu.icache.demand_miss_rate::cpu.inst     0.500000                       # miss rate for demand accesses
system.cpu.icache.demand_miss_rate::switch_cpus.inst     0.666667                       # miss rate for demand accesses
system.cpu.icache.demand_miss_rate::total     0.600000                       # miss rate for demand accesses
system.cpu.icache.overall_miss_rate::cpu.inst     0.500000                       # miss rate for overall accesses
system.cpu.icache.overall_miss_rate::switch_cpus.inst     0.666667                       # miss rate for overall accesses
system.cpu.icache.overall_miss_rate::total     0.600000                       # miss rate for overall accesses
system.cpu.icache.ReadReq_avg_miss_latency::switch_cpus.inst        40800                       # average ReadReq miss latency
system.cpu.icache.ReadReq_avg_miss_latency::total        27200                       # average ReadReq miss latency
system.cpu.icache.demand_avg_miss_latency::switch_cpus.inst        40800                       # average overall miss latency
system.cpu.icache.demand_avg_miss_latency::total        27200                       # average overall miss latency
system.cpu.icache.overall_avg_miss_latency::switch_cpus.inst        40800                       # average overall miss latency
system.cpu.icache.overall_avg_miss_latency::total        27200                       # average overall miss latency
system.cpu.icache.blocked_cycles::no_mshrs            0                       # number of cycles access was blocked
system.cpu.icache.blocked_cycles::no_targets            0                       # number of cycles access was blocked
system.cpu.icache.blocked::no_mshrs                 0                       # number of cycles access was blocked
system.cpu.icache.blocked::no_targets               0                       # number of cycles access was blocked
system.cpu.icache.avg_blocked_cycles::no_mshrs          nan                       # average number of cycles each access was blocked
system.cpu.icache.avg_blocked_cycles::no_targets          nan                       # average number of cycles each access was blocked
system.cpu.icache.ReadReq_mshr_misses::switch_cpus.inst            2                       # number of ReadReq MSHR misses
system.cpu.icache.ReadReq_mshr_misses::total            2                       # number of ReadReq MSHR misses
system.cpu.icache.demand_mshr_misses::switch_cpus.inst            2                       # number of demand (read+write) MSHR misses
system.cpu.icache.demand_mshr_misses::total            2                       # number of demand (read+write) MSHR misses
system.cpu.icache.overall_mshr_misses::switch_cpus.inst            2                       # number of overall MSHR misses
system.cpu.icache.overall_mshr_misses::total            2                       # number of overall MSHR misses
system.cpu.icache.ReadReq_mshr_miss_latency::switch_cpus.inst        80800                       # number of ReadReq MSHR miss cycles
system.cpu.icache.ReadReq_mshr_miss_latency::total        80800                       # number of ReadReq MSHR miss cycles
system.cpu.icache.demand_mshr_miss_latency::switch_cpus.inst        80800                       # number of demand (read+write) MSHR miss cycles
system.cpu.icache.demand_mshr_miss_latency::total        80800                       # number of demand (read+write) MSHR miss cycles
system.cpu.icache.overall_mshr_miss_latency::switch_cpus.inst        80800                       # number of overall MSHR miss cycles
system.cpu.icache.overall_mshr_miss_latency::total        80800                       # number of overall MSHR miss cycles
system.cpu.icache.ReadReq_mshr_miss_rate::switch_cpus.inst     0.666667                       # mshr miss rate for ReadReq accesses
system.cpu.icache.ReadReq_mshr_miss_rate::total     0.400000                       # mshr miss rate for ReadReq accesses
system.cpu.icache.demand_mshr_miss_rate::switch_cpus.inst     0.666667                       # mshr miss rate for demand accesses
system.cpu.icache.demand_mshr_miss_rate::total     0.400000                       # mshr miss rate for demand accesses
system.cpu.icache.overall_mshr_miss_rate::switch_cpus.inst     0.666667                       # mshr miss rate for overall accesses
system.cpu.icache.overall_mshr_miss_rate::total     0.400000                       # mshr miss rate for overall accesses
system.cpu.icache.ReadReq_avg_mshr_miss_latency::switch_cpus.inst        40400                       # average ReadReq mshr miss latency
system.cpu.icache.ReadReq_avg_mshr_miss_latency::total        40400                       # average ReadReq mshr miss latency
system.cpu.icache.demand_avg_mshr_miss_latency::switch_cpus.inst        40400                       # average overall mshr miss latency
system.cpu.icache.demand_avg_mshr_miss_latency::total        40400                       # average overall mshr miss latency
system.cpu.icache.overall_avg_mshr_miss_latency::switch_cpus.inst        40400                       # average overall mshr miss latency
system.cpu.icache.overall_avg_mshr_miss_latency::total        40400                       # average overall mshr miss latency
system.cpu.itb_walker_cache.tags.pwrStateResidencyTicks::UNDEFINED       141600                       # Cumulative time (in ticks) in various power states
system.cpu.itb_walker_cache.tags.replacements            0                       # number of replacements
system.cpu.itb_walker_cache.tags.tagsinuse            0                       # Cycle average of tags in use
system.cpu.itb_walker_cache.tags.total_refs            0                       # Total number of references to valid blocks.
system.cpu.itb_walker_cache.tags.sampled_refs            0                       # Sample count of references to valid blocks.
system.cpu.itb_walker_cache.tags.avg_refs          nan                       # Average number of references to valid blocks.
system.cpu.itb_walker_cache.tags.warmup_cycle            0                       # Cycle when the warmup percentage was hit.
system.cpu.itb_walker_cache.tags.tag_accesses            0                       # Number of tag accesses
system.cpu.itb_walker_cache.tags.data_accesses            0                       # Number of data accesses
system.cpu.itb_walker_cache.pwrStateResidencyTicks::UNDEFINED       141600                       # Cumulative time (in ticks) in various power states
system.cpu.itb_walker_cache.blocked_cycles::no_mshrs            0                       # number of cycles access was blocked
system.cpu.itb_walker_cache.blocked_cycles::no_targets            0                       # number of cycles access was blocked
system.cpu.itb_walker_cache.blocked::no_mshrs            0                       # number of cycles access was blocked
system.cpu.itb_walker_cache.blocked::no_targets            0                       # number of cycles access was blocked
system.cpu.itb_walker_cache.avg_blocked_cycles::no_mshrs          nan                       # average number of cycles each access was blocked
system.cpu.itb_walker_cache.avg_blocked_cycles::no_targets          nan                       # average number of cycles each access was blocked
system.l2.tags.pwrStateResidencyTicks::UNDEFINED       141600                       # Cumulative time (in ticks) in various power states
system.l2.tags.replacements                         0                       # number of replacements
system.l2.tags.tagsinuse                     1.196340                       # Cycle average of tags in use
system.l2.tags.total_refs                           0                       # Total number of references to valid blocks.
system.l2.tags.sampled_refs                         0                       # Sample count of references to valid blocks.
system.l2.tags.avg_refs                           nan                       # Average number of references to valid blocks.
system.l2.tags.warmup_cycle                         0                       # Cycle when the warmup percentage was hit.
system.l2.tags.occ_blocks::cpu.inst          0.997175                       # Average occupied blocks per requestor
system.l2.tags.occ_blocks::switch_cpus.inst     0.124300                       # Average occupied blocks per requestor
system.l2.tags.occ_blocks::switch_cpus.data     0.074865                       # Average occupied blocks per requestor
system.l2.tags.occ_percent::cpu.inst         0.000061                       # Average percentage of cache occupancy
system.l2.tags.occ_percent::switch_cpus.inst     0.000008                       # Average percentage of cache occupancy
system.l2.tags.occ_percent::switch_cpus.data     0.000005                       # Average percentage of cache occupancy
system.l2.tags.occ_percent::total            0.000073                       # Average percentage of cache occupancy
system.l2.tags.occ_task_id_blocks::1024             3                       # Occupied blocks per task id
system.l2.tags.age_task_id_blocks_1024::0            3                       # Occupied blocks per task id
system.l2.tags.occ_task_id_percent::1024     0.000183                       # Percentage of cache occupancy per task id
system.l2.tags.tag_accesses                        35                       # Number of tag accesses
system.l2.tags.data_accesses                       35                       # Number of data accesses
system.l2.pwrStateResidencyTicks::UNDEFINED       141600                       # Cumulative time (in ticks) in various power states
system.l2.ReadCleanReq_misses::cpu.inst             1                       # number of ReadCleanReq misses
system.l2.ReadCleanReq_misses::switch_cpus.inst            2                       # number of ReadCleanReq misses
system.l2.ReadCleanReq_misses::total                3                       # number of ReadCleanReq misses
system.l2.ReadSharedReq_misses::switch_cpus.data            1                       # number of ReadSharedReq misses
system.l2.ReadSharedReq_misses::total               1                       # number of ReadSharedReq misses
system.l2.demand_misses::cpu.inst                   1                       # number of demand (read+write) misses
system.l2.demand_misses::switch_cpus.inst            2                       # number of demand (read+write) misses
system.l2.demand_misses::switch_cpus.data            1                       # number of demand (read+write) misses
system.l2.demand_misses::total                      4                       # number of demand (read+write) misses
system.l2.overall_misses::cpu.inst                  1                       # number of overall misses
system.l2.overall_misses::switch_cpus.inst            2                       # number of overall misses
system.l2.overall_misses::switch_cpus.data            1                       # number of overall misses
system.l2.overall_misses::total                     4                       # number of overall misses
system.l2.ReadCleanReq_miss_latency::switch_cpus.inst        79600                       # number of ReadCleanReq miss cycles
system.l2.ReadCleanReq_miss_latency::total        79600                       # number of ReadCleanReq miss cycles
system.l2.ReadSharedReq_miss_latency::switch_cpus.data        85600                       # number of ReadSharedReq miss cycles
system.l2.ReadSharedReq_miss_latency::total        85600                       # number of ReadSharedReq miss cycles
system.l2.demand_miss_latency::switch_cpus.inst        79600                       # number of demand (read+write) miss cycles
system.l2.demand_miss_latency::switch_cpus.data        85600                       # number of demand (read+write) miss cycles
system.l2.demand_miss_latency::total           165200                       # number of demand (read+write) miss cycles
system.l2.overall_miss_latency::switch_cpus.inst        79600                       # number of overall miss cycles
system.l2.overall_miss_latency::switch_cpus.data        85600                       # number of overall miss cycles
system.l2.overall_miss_latency::total          165200                       # number of overall miss cycles
system.l2.ReadCleanReq_accesses::cpu.inst            1                       # number of ReadCleanReq accesses(hits+misses)
system.l2.ReadCleanReq_accesses::switch_cpus.inst            2                       # number of ReadCleanReq accesses(hits+misses)
system.l2.ReadCleanReq_accesses::total              3                       # number of ReadCleanReq accesses(hits+misses)
system.l2.ReadSharedReq_accesses::switch_cpus.data            1                       # number of ReadSharedReq accesses(hits+misses)
system.l2.ReadSharedReq_accesses::total             1                       # number of ReadSharedReq accesses(hits+misses)
system.l2.demand_accesses::cpu.inst                 1                       # number of demand (read+write) accesses
system.l2.demand_accesses::switch_cpus.inst            2                       # number of demand (read+write) accesses
system.l2.demand_accesses::switch_cpus.data            1                       # number of demand (read+write) accesses
system.l2.demand_accesses::total                    4                       # number of demand (read+write) accesses
system.l2.overall_accesses::cpu.inst                1                       # number of overall (read+write) accesses
system.l2.overall_accesses::switch_cpus.inst            2                       # number of overall (read+write) accesses
system.l2.overall_accesses::switch_cpus.data            1                       # number of overall (read+write) accesses
system.l2.overall_accesses::total                   4                       # number of overall (read+write) accesses
system.l2.ReadCleanReq_miss_rate::cpu.inst            1                       # miss rate for ReadCleanReq accesses
system.l2.ReadCleanReq_miss_rate::switch_cpus.inst            1                       # miss rate for ReadCleanReq accesses
system.l2.ReadCleanReq_miss_rate::total             1                       # miss rate for ReadCleanReq accesses
system.l2.ReadSharedReq_miss_rate::switch_cpus.data            1                       # miss rate for ReadSharedReq accesses
system.l2.ReadSharedReq_miss_rate::total            1                       # miss rate for ReadSharedReq accesses
system.l2.demand_miss_rate::cpu.inst                1                       # miss rate for demand accesses
system.l2.demand_miss_rate::switch_cpus.inst            1                       # miss rate for demand accesses
system.l2.demand_miss_rate::switch_cpus.data            1                       # miss rate for demand accesses
system.l2.demand_miss_rate::total                   1                       # miss rate for demand accesses
system.l2.overall_miss_rate::cpu.inst               1                       # miss rate for overall accesses
system.l2.overall_miss_rate::switch_cpus.inst            1                       # miss rate for overall accesses
system.l2.overall_miss_rate::switch_cpus.data            1                       # miss rate for overall accesses
system.l2.overall_miss_rate::total                  1                       # miss rate for overall accesses
system.l2.ReadCleanReq_avg_miss_latency::switch_cpus.inst        39800                       # average ReadCleanReq miss latency
system.l2.ReadCleanReq_avg_miss_latency::total 26533.333333                       # average ReadCleanReq miss latency
system.l2.ReadSharedReq_avg_miss_latency::switch_cpus.data        85600                       # average ReadSharedReq miss latency
system.l2.ReadSharedReq_avg_miss_latency::total        85600                       # average ReadSharedReq miss latency
system.l2.demand_avg_miss_latency::switch_cpus.inst        39800                       # average overall miss latency
system.l2.demand_avg_miss_latency::switch_cpus.data        85600                       # average overall miss latency
system.l2.demand_avg_miss_latency::total        41300                       # average overall miss latency
system.l2.overall_avg_miss_latency::switch_cpus.inst        39800                       # average overall miss latency
system.l2.overall_avg_miss_latency::switch_cpus.data        85600                       # average overall miss latency
system.l2.overall_avg_miss_latency::total        41300                       # average overall miss latency
system.l2.blocked_cycles::no_mshrs                  0                       # number of cycles access was blocked
system.l2.blocked_cycles::no_targets                0                       # number of cycles access was blocked
system.l2.blocked::no_mshrs                         0                       # number of cycles access was blocked
system.l2.blocked::no_targets                       0                       # number of cycles access was blocked
system.l2.avg_blocked_cycles::no_mshrs            nan                       # average number of cycles each access was blocked
system.l2.avg_blocked_cycles::no_targets          nan                       # average number of cycles each access was blocked
system.l2.ReadCleanReq_mshr_misses::switch_cpus.inst            2                       # number of ReadCleanReq MSHR misses
system.l2.ReadCleanReq_mshr_misses::total            2                       # number of ReadCleanReq MSHR misses
system.l2.ReadSharedReq_mshr_misses::switch_cpus.data            1                       # number of ReadSharedReq MSHR misses
system.l2.ReadSharedReq_mshr_misses::total            1                       # number of ReadSharedReq MSHR misses
system.l2.demand_mshr_misses::switch_cpus.inst            2                       # number of demand (read+write) MSHR misses
system.l2.demand_mshr_misses::switch_cpus.data            1                       # number of demand (read+write) MSHR misses
system.l2.demand_mshr_misses::total                 3                       # number of demand (read+write) MSHR misses
system.l2.overall_mshr_misses::switch_cpus.inst            2                       # number of overall MSHR misses
system.l2.overall_mshr_misses::switch_cpus.data            1                       # number of overall MSHR misses
system.l2.overall_mshr_misses::total                3                       # number of overall MSHR misses
system.l2.ReadCleanReq_mshr_miss_latency::switch_cpus.inst        71600                       # number of ReadCleanReq MSHR miss cycles
system.l2.ReadCleanReq_mshr_miss_latency::total        71600                       # number of ReadCleanReq MSHR miss cycles
system.l2.ReadSharedReq_mshr_miss_latency::switch_cpus.data        77400                       # number of ReadSharedReq MSHR miss cycles
system.l2.ReadSharedReq_mshr_miss_latency::total        77400                       # number of ReadSharedReq MSHR miss cycles
system.l2.demand_mshr_miss_latency::switch_cpus.inst        71600                       # number of demand (read+write) MSHR miss cycles
system.l2.demand_mshr_miss_latency::switch_cpus.data        77400                       # number of demand (read+write) MSHR miss cycles
system.l2.demand_mshr_miss_latency::total       149000                       # number of demand (read+write) MSHR miss cycles
system.l2.overall_mshr_miss_latency::switch_cpus.inst        71600                       # number of overall MSHR miss cycles
system.l2.overall_mshr_miss_latency::switch_cpus.data        77400                       # number of overall MSHR miss cycles
system.l2.overall_mshr_miss_latency::total       149000                       # number of overall MSHR miss cycles
system.l2.ReadCleanReq_mshr_miss_rate::switch_cpus.inst            1                       # mshr miss rate for ReadCleanReq accesses
system.l2.ReadCleanReq_mshr_miss_rate::total     0.666667                       # mshr miss rate for ReadCleanReq accesses
system.l2.ReadSharedReq_mshr_miss_rate::switch_cpus.data            1                       # mshr miss rate for ReadSharedReq accesses
system.l2.ReadSharedReq_mshr_miss_rate::total            1                       # mshr miss rate for ReadSharedReq accesses
system.l2.demand_mshr_miss_rate::switch_cpus.inst            1                       # mshr miss rate for demand accesses
system.l2.demand_mshr_miss_rate::switch_cpus.data            1                       # mshr miss rate for demand accesses
system.l2.demand_mshr_miss_rate::total       0.750000                       # mshr miss rate for demand accesses
system.l2.overall_mshr_miss_rate::switch_cpus.inst            1                       # mshr miss rate for overall accesses
system.l2.overall_mshr_miss_rate::switch_cpus.data            1                       # mshr miss rate for overall accesses
system.l2.overall_mshr_miss_rate::total      0.750000                       # mshr miss rate for overall accesses
system.l2.ReadCleanReq_avg_mshr_miss_latency::switch_cpus.inst        35800                       # average ReadCleanReq mshr miss latency
system.l2.ReadCleanReq_avg_mshr_miss_latency::total        35800                       # average ReadCleanReq mshr miss latency
system.l2.ReadSharedReq_avg_mshr_miss_latency::switch_cpus.data        77400                       # average ReadSharedReq mshr miss latency
system.l2.ReadSharedReq_avg_mshr_miss_latency::total        77400                       # average ReadSharedReq mshr miss latency
system.l2.demand_avg_mshr_miss_latency::switch_cpus.inst        35800                       # average overall mshr miss latency
system.l2.demand_avg_mshr_miss_latency::switch_cpus.data        77400                       # average overall mshr miss latency
system.l2.demand_avg_mshr_miss_latency::total 49666.666667                       # average overall mshr miss latency
system.l2.overall_avg_mshr_miss_latency::switch_cpus.inst        35800                       # average overall mshr miss latency
system.l2.overall_avg_mshr_miss_latency::switch_cpus.data        77400                       # average overall mshr miss latency
system.l2.overall_avg_mshr_miss_latency::total 49666.666667                       # average overall mshr miss latency
system.membus.snoop_filter.tot_requests             3                       # Total number of requests made to the snoop filter.
system.membus.snoop_filter.hit_single_requests            0                       # Number of requests hitting in the snoop filter with a single holder of the requested data.
system.membus.snoop_filter.hit_multi_requests            0                       # Number of requests hitting in the snoop filter with multiple (>1) holders of the requested data.
system.membus.snoop_filter.tot_snoops               0                       # Total number of snoops made to the snoop filter.
system.membus.snoop_filter.hit_single_snoops            0                       # Number of snoops hitting in the snoop filter with a single holder of the requested data.
system.membus.snoop_filter.hit_multi_snoops            0                       # Number of snoops hitting in the snoop filter with multiple (>1) holders of the requested data.
system.membus.pwrStateResidencyTicks::UNDEFINED       141600                       # Cumulative time (in ticks) in various power states
system.membus.trans_dist::ReadResp                  3                       # Transaction distribution
system.membus.trans_dist::ReadSharedReq             3                       # Transaction distribution
system.membus.pkt_count_system.l2.mem_side::system.mem_ctrls.port            6                       # Packet count per connected master and slave (bytes)
system.membus.pkt_count_system.l2.mem_side::total            6                       # Packet count per connected master and slave (bytes)
system.membus.pkt_count::total                      6                       # Packet count per connected master and slave (bytes)
system.membus.pkt_size_system.l2.mem_side::system.mem_ctrls.port          192                       # Cumulative packet size per connected master and slave (bytes)
system.membus.pkt_size_system.l2.mem_side::total          192                       # Cumulative packet size per connected master and slave (bytes)
system.membus.pkt_size::total                     192                       # Cumulative packet size per connected master and slave (bytes)
system.membus.snoops                                0                       # Total snoops (count)
[...]
system.switch_cpus.iew.lsq.thread0.forwLoads        81820                       # Number of loads that had data forwarded from stores
system.switch_cpus.iew.lsq.thread0.invAddrLoads            0                       # Number of loads ignored due to an invalid address
system.switch_cpus.iew.lsq.thread0.squashedLoads       523555                       # Number of loads squashed
system.switch_cpus.iew.lsq.thread0.ignoredResponses         4512                       # Number of memory responses ignored because the instruction is squashed
system.switch_cpus.iew.lsq.thread0.memOrderViolation          828                       # Number of memory ordering violations
system.switch_cpus.iew.lsq.thread0.squashedStores       312740                       # Number of stores squashed
system.switch_cpus.iew.lsq.thread0.invAddrSwpfs            0                       # Number of software prefetches ignored due to an invalid address
system.switch_cpus.iew.lsq.thread0.blockedLoads            0                       # Number of blocked loads due to partial load-store forwarding
system.switch_cpus.iew.lsq.thread0.rescheduledLoads           79                       # Number of loads that were rescheduled
system.switch_cpus.iew.lsq.thread0.cacheBlocked           51                       # Number of times an access to memory failed due to the cache being blocked
system.switch_cpus.iew.iewIdleCycles                0                       # Number of cycles IEW is idle
system.switch_cpus.iew.iewSquashCycles         412106                       # Number of cycles IEW is squashing
system.switch_cpus.iew.iewBlockCycles          361077                       # Number of cycles IEW is blocking
system.switch_cpus.iew.iewUnblockCycles         42160                       # Number of cycles IEW is unblocking
system.switch_cpus.iew.iewDispatchedInsts     24088977                       # Number of instructions dispatched to IQ
system.switch_cpus.iew.iewDispSquashedInsts       441132                       # Number of squashed instructions skipped by dispatch
system.switch_cpus.iew.iewDispLoadInsts       2539177                       # Number of dispatched load instructions
system.switch_cpus.iew.iewDispStoreInsts      1777256                       # Number of dispatched store instructions
system.switch_cpus.iew.iewDispNonSpecInsts        15068                       # Number of dispatched non-speculative instructions
system.switch_cpus.iew.iewIQFullEvents           1980                       # Number of times the IQ has become full, causing a stall
system.switch_cpus.iew.iewLSQFullEvents         34131                       # Number of times the LSQ has become full, causing a stall
system.switch_cpus.iew.memOrderViolationEvents          828                       # Number of memory order violations
system.switch_cpus.iew.predictedTakenIncorrect        88692                       # Number of branches that were predicted taken incorrectly
system.switch_cpus.iew.predictedNotTakenIncorrect       360924                       # Number of branches that were predicted not taken incorrectly
system.switch_cpus.iew.branchMispredicts       449616                       # Number of branch mispredicts detected at execute
system.switch_cpus.iew.iewExecutedInsts      22317632                       # Number of executed instructions
system.switch_cpus.iew.iewExecLoadInsts       2330394                       # Number of load instructions executed
system.switch_cpus.iew.iewExecSquashedInsts       963387                       # Number of squashed instructions skipped in execute
system.switch_cpus.iew.exec_swp                     0                       # number of swp insts executed
system.switch_cpus.iew.exec_nop                     0                       # number of nop insts executed
system.switch_cpus.iew.exec_refs              3924430                       # number of memory reference insts executed
system.switch_cpus.iew.exec_branches          2765463                       # Number of branches executed
system.switch_cpus.iew.exec_stores            1594036                       # Number of stores executed
system.switch_cpus.iew.exec_rate             1.707506                       # Inst execution rate
system.switch_cpus.iew.wb_sent               22193845                       # cumulative count of insts sent to commit
system.switch_cpus.iew.wb_count              22125782                       # cumulative count of insts written-back
system.switch_cpus.iew.wb_producers          14786638                       # num instructions producing a value
system.switch_cpus.iew.wb_consumers          21328288                       # num instructions consuming a value
system.switch_cpus.iew.wb_rate               1.692828                       # insts written-back per cycle
system.switch_cpus.iew.wb_fanout             0.693288                       # average fanout of values written-back
system.switch_cpus.commit.commitSquashedInsts      4288947                       # The number of squashed insts skipped by commit
system.switch_cpus.commit.commitNonSpecStalls        30466                       # The number of times commit has been forced to stall to communicate backwards
system.switch_cpus.commit.branchMispredicts       411293                       # The number of times a branch was mispredicted
system.switch_cpus.commit.committed_per_cycle::samples     12004278                       # Number of insts commited each cycle
system.switch_cpus.commit.committed_per_cycle::mean     1.649415                       # Number of insts commited each cycle
system.switch_cpus.commit.committed_per_cycle::stdev     1.364852                       # Number of insts commited each cycle
system.switch_cpus.commit.committed_per_cycle::underflows            0      0.00%      0.00% # Number of insts commited each cycle
system.switch_cpus.commit.committed_per_cycle::0      4267112     35.55%     35.55% # Number of insts commited each cycle
system.switch_cpus.commit.committed_per_cycle::1      1221560     10.18%     45.72% # Number of insts commited each cycle
system.switch_cpus.commit.committed_per_cycle::2       968338      8.07%     53.79% # Number of insts commited each cycle
system.switch_cpus.commit.committed_per_cycle::3      5547268     46.21%    100.00% # Number of insts commited each cycle
system.switch_cpus.commit.committed_per_cycle::overflows            0      0.00%    100.00% # Number of insts commited each cycle
system.switch_cpus.commit.committed_per_cycle::min_value            0                       # Number of insts commited each cycle
system.switch_cpus.commit.committed_per_cycle::max_value            3                       # Number of insts commited each cycle
system.switch_cpus.commit.committed_per_cycle::total     12004278                       # Number of insts commited each cycle
system.switch_cpus.commit.committedInsts      9999999                       # Number of instructions committed
system.switch_cpus.commit.committedOps       19800040                       # Number of ops (including micro ops) committed
system.switch_cpus.commit.swp_count                 0                       # Number of s/w prefetches committed
system.switch_cpus.commit.refs                3480138                       # Number of memory references committed
system.switch_cpus.commit.loads               2015620                       # Number of loads committed
system.switch_cpus.commit.membars               19880                       # Number of memory barriers committed
system.switch_cpus.commit.branches            2600768                       # Number of branches committed
system.switch_cpus.commit.fp_insts              26822                       # Number of committed floating point instructions.
system.switch_cpus.commit.int_insts          19648120                       # Number of committed integer instructions.
system.switch_cpus.commit.function_calls       209296                       # Number of function calls committed.
system.switch_cpus.commit.op_class_0::No_OpClass       115160      0.58%      0.58% # Class of committed instruction
system.switch_cpus.commit.op_class_0::IntAlu     16163236     81.63%     82.21% # Class of committed instruction
system.switch_cpus.commit.op_class_0::IntMult        10336      0.05%     82.27% # Class of committed instruction
system.switch_cpus.commit.op_class_0::IntDiv        12605      0.06%     82.33% # Class of committed instruction
system.switch_cpus.commit.op_class_0::FloatAdd        18565      0.09%     82.42% # Class of committed instruction
system.switch_cpus.commit.op_class_0::FloatCmp            0      0.00%     82.42% # Class of committed instruction
system.switch_cpus.commit.op_class_0::FloatCvt            0      0.00%     82.42% # Class of committed instruction
system.switch_cpus.commit.op_class_0::FloatMult            0      0.00%     82.42% # Class of committed instruction
system.switch_cpus.commit.op_class_0::FloatMultAcc            0      0.00%     82.42% # Class of committed instruction
system.switch_cpus.commit.op_class_0::FloatDiv            0      0.00%     82.42% # Class of committed instruction
system.switch_cpus.commit.op_class_0::FloatMisc            0      0.00%     82.42% # Class of committed instruction
system.switch_cpus.commit.op_class_0::FloatSqrt            0      0.00%     82.42% # Class of committed instruction
system.switch_cpus.commit.op_class_0::SimdAdd            0      0.00%     82.42% # Class of committed instruction
system.switch_cpus.commit.op_class_0::SimdAddAcc            0      0.00%     82.42% # Class of committed instruction
system.switch_cpus.commit.op_class_0::SimdAlu            0      0.00%     82.42% # Class of committed instruction
system.switch_cpus.commit.op_class_0::SimdCmp            0      0.00%     82.42% # Class of committed instruction
system.switch_cpus.commit.op_class_0::SimdCvt            0      0.00%     82.42% # Class of committed instruction
system.switch_cpus.commit.op_class_0::SimdMisc            0      0.00%     82.42% # Class of committed instruction
system.switch_cpus.commit.op_class_0::SimdMult            0      0.00%     82.42% # Class of committed instruction
system.switch_cpus.commit.op_class_0::SimdMultAcc            0      0.00%     82.42% # Class of committed instruction
system.switch_cpus.commit.op_class_0::SimdShift            0      0.00%     82.42% # Class of committed instruction
system.switch_cpus.commit.op_class_0::SimdShiftAcc            0      0.00%     82.42% # Class of committed instruction
system.switch_cpus.commit.op_class_0::SimdSqrt            0      0.00%     82.42% # Class of committed instruction
system.switch_cpus.commit.op_class_0::SimdFloatAdd            0      0.00%     82.42% # Class of committed instruction
system.switch_cpus.commit.op_class_0::SimdFloatAlu            0      0.00%     82.42% # Class of committed instruction
system.switch_cpus.commit.op_class_0::SimdFloatCmp            0      0.00%     82.42% # Class of committed instruction
system.switch_cpus.commit.op_class_0::SimdFloatCvt            0      0.00%     82.42% # Class of committed instruction
system.switch_cpus.commit.op_class_0::SimdFloatDiv            0      0.00%     82.42% # Class of committed instruction
system.switch_cpus.commit.op_class_0::SimdFloatMisc            0      0.00%     82.42% # Class of committed instruction
system.switch_cpus.commit.op_class_0::SimdFloatMult            0      0.00%     82.42% # Class of committed instruction
system.switch_cpus.commit.op_class_0::SimdFloatMultAcc            0      0.00%     82.42% # Class of committed instruction
system.switch_cpus.commit.op_class_0::SimdFloatSqrt            0      0.00%     82.42% # Class of committed instruction
system.switch_cpus.commit.op_class_0::MemRead      2009612     10.15%     92.57% # Class of committed instruction
system.switch_cpus.commit.op_class_0::MemWrite      1463488      7.39%     99.96% # Class of committed instruction
system.switch_cpus.commit.op_class_0::FloatMemRead         6008      0.03%     99.99% # Class of committed instruction
system.switch_cpus.commit.op_class_0::FloatMemWrite         1030      0.01%    100.00% # Class of committed instruction
system.switch_cpus.commit.op_class_0::IprAccess            0      0.00%    100.00% # Class of committed instruction
system.switch_cpus.commit.op_class_0::InstPrefetch            0      0.00%    100.00% # Class of committed instruction
system.switch_cpus.commit.op_class_0::total     19800040                       # Class of committed instruction
system.switch_cpus.commit.bw_lim_events       5547268                       # number cycles where commit BW limit reached
system.switch_cpus.rob.rob_reads             30545997                       # The number of ROB reads
system.switch_cpus.rob.rob_writes            48899835                       # The number of ROB writes
system.switch_cpus.timesIdled                   32587                       # Number of times that the entire CPU went into an idle state and unscheduled itself
system.switch_cpus.idleCycles                  350719                       # Total number of cycles that the CPU has spent unscheduled due to idling
system.switch_cpus.committedInsts             9999999                       # Number of Instructions Simulated
system.switch_cpus.committedOps              19800040                       # Number of Ops (including micro ops) Simulated
system.switch_cpus.cpi                       1.307031                       # CPI: Cycles Per Instruction
system.switch_cpus.cpi_total                 1.307031                       # CPI: Total CPI of All Threads
system.switch_cpus.ipc                       0.765093                       # IPC: Instructions Per Cycle
system.switch_cpus.ipc_total                 0.765093                       # IPC: Total IPC of All Threads
system.switch_cpus.int_regfile_reads         30778361                       # number of integer regfile reads
system.switch_cpus.int_regfile_writes        17617420                       # number of integer regfile writes
system.switch_cpus.fp_regfile_reads             49002                       # number of floating regfile reads
system.switch_cpus.fp_regfile_writes            25972                       # number of floating regfile writes
system.switch_cpus.cc_regfile_reads          12384797                       # number of cc regfile reads
system.switch_cpus.cc_regfile_writes          6582162                       # number of cc regfile writes
system.switch_cpus.misc_regfile_reads         9336649                       # number of misc regfile reads
system.switch_cpus.misc_regfile_writes            550                       # number of misc regfile writes
system.tol2bus.snoop_filter.tot_requests       126290                       # Total number of requests made to the snoop filter.
system.tol2bus.snoop_filter.hit_single_requests        62643                       # Number of requests hitting in the snoop filter with a single holder of the requested data.
system.tol2bus.snoop_filter.hit_multi_requests          912                       # Number of requests hitting in the snoop filter with multiple (>1) holders of the requested data.
system.tol2bus.snoop_filter.tot_snoops              0                       # Total number of snoops made to the snoop filter.
system.tol2bus.snoop_filter.hit_single_snoops            0                       # Number of snoops hitting in the snoop filter with a single holder of the requested data.
system.tol2bus.snoop_filter.hit_multi_snoops            0                       # Number of snoops hitting in the snoop filter with multiple (>1) holders of the requested data.
system.tol2bus.pwrStateResidencyTicks::UNDEFINED   5228122800                       # Cumulative time (in ticks) in various power states
system.tol2bus.trans_dist::ReadResp             62781                       # Transaction distribution
system.tol2bus.trans_dist::WritebackDirty          723                       # Transaction distribution
system.tol2bus.trans_dist::WritebackClean        61560                       # Transaction distribution
system.tol2bus.trans_dist::CleanEvict             348                       # Transaction distribution
system.tol2bus.trans_dist::UpgradeReq               4                       # Transaction distribution
system.tol2bus.trans_dist::UpgradeResp              4                       # Transaction distribution
system.tol2bus.trans_dist::ReadExReq              875                       # Transaction distribution
system.tol2bus.trans_dist::ReadExResp             875                       # Transaction distribution
system.tol2bus.trans_dist::ReadCleanReq         62073                       # Transaction distribution
system.tol2bus.trans_dist::ReadSharedReq          707                       # Transaction distribution
system.tol2bus.pkt_count_system.cpu.icache.mem_side::system.l2.cpu_side       185702                       # Packet count per connected master and slave (bytes)
system.tol2bus.pkt_count_system.cpu.dcache.mem_side::system.l2.cpu_side         4243                       # Packet count per connected master and slave (bytes)
system.tol2bus.pkt_count::total                189945                       # Packet count per connected master and slave (bytes)
system.tol2bus.pkt_size_system.cpu.icache.mem_side::system.l2.cpu_side      7912256                       # Cumulative packet size per connected master and slave (bytes)
system.tol2bus.pkt_size_system.cpu.dcache.mem_side::system.l2.cpu_side       147520                       # Cumulative packet size per connected master and slave (bytes)
system.tol2bus.pkt_size::total                8059776                       # Cumulative packet size per connected master and slave (bytes)
system.tol2bus.snoops                               5                       # Total snoops (count)
system.tol2bus.snoopTraffic                       320                       # Total snoop traffic (bytes)
system.tol2bus.snoop_fanout::samples            63659                       # Request fanout histogram
system.tol2bus.snoop_fanout::mean            0.014515                       # Request fanout histogram
system.tol2bus.snoop_fanout::stdev           0.119601                       # Request fanout histogram
system.tol2bus.snoop_fanout::underflows             0      0.00%      0.00% # Request fanout histogram
system.tol2bus.snoop_fanout::0                  62735     98.55%     98.55% # Request fanout histogram
system.tol2bus.snoop_fanout::1                    924      1.45%    100.00% # Request fanout histogram
system.tol2bus.snoop_fanout::2                      0      0.00%    100.00% # Request fanout histogram
system.tol2bus.snoop_fanout::3                      0      0.00%    100.00% # Request fanout histogram
system.tol2bus.snoop_fanout::4                      0      0.00%    100.00% # Request fanout histogram
system.tol2bus.snoop_fanout::overflows              0      0.00%    100.00% # Request fanout histogram
system.tol2bus.snoop_fanout::min_value              0                       # Request fanout histogram
system.tol2bus.snoop_fanout::max_value              1                       # Request fanout histogram
system.tol2bus.snoop_fanout::total              63659                       # Request fanout histogram
system.tol2bus.reqLayer0.occupancy          100342400                       # Layer occupancy (ticks)
system.tol2bus.reqLayer0.utilization              1.9                       # Layer utilization (%)
system.tol2bus.respLayer0.occupancy          74489199                       # Layer occupancy (ticks)
system.tol2bus.respLayer0.utilization             1.4                       # Layer utilization (%)
system.tol2bus.respLayer1.occupancy           1900798                       # Layer occupancy (ticks)
system.tol2bus.respLayer1.utilization             0.0                       # Layer utilization (%)

---------- End Simulation Statistics   ----------
