
---------- Begin Simulation Statistics ----------
sim_seconds                                  0.006723                       # Number of seconds simulated
sim_ticks                                  6723062342                       # Number of ticks simulated
final_tick                               23749795425342                       # Number of ticks from beginning of simulation (restored from checkpoints and never reset)
sim_freq                                 1000000000000                       # Frequency of simulated ticks
host_inst_rate                                  44831                       # Simulator instruction rate (inst/s)
host_op_rate                                    63632                       # Simulator op (including micro ops) rate (op/s)
host_tick_rate                               75526435                       # Simulator tick rate (ticks/s)
host_mem_usage                                4515784                       # Number of bytes of host memory used
host_seconds                                    89.02                       # Real time elapsed on the host
sim_insts                                     3990638                       # Number of instructions simulated
sim_ops                                       5664298                       # Number of ops (including micro ops) simulated
system.voltage_domain.voltage                       1                       # Voltage in Volts
system.clk_domain.clock                          1000                       # Clock period in ticks
system.mem_ctrls.pwrStateResidencyTicks::UNDEFINED 23749795425342                       # Cumulative time (in ticks) in various power states
system.mem_ctrls.bytes_read::cpu0.inst             64                       # Number of bytes read from this memory
system.mem_ctrls.bytes_read::cpu0.data            192                       # Number of bytes read from this memory
system.mem_ctrls.bytes_read::cpu1.inst             64                       # Number of bytes read from this memory
system.mem_ctrls.bytes_read::cpu1.data            192                       # Number of bytes read from this memory
system.mem_ctrls.bytes_read::cpu2.inst             64                       # Number of bytes read from this memory
system.mem_ctrls.bytes_read::cpu2.data            192                       # Number of bytes read from this memory
system.mem_ctrls.bytes_read::cpu3.inst             64                       # Number of bytes read from this memory
system.mem_ctrls.bytes_read::cpu3.data            192                       # Number of bytes read from this memory
system.mem_ctrls.bytes_read::switch_cpus0.inst         7808                       # Number of bytes read from this memory
system.mem_ctrls.bytes_read::switch_cpus0.data      2636480                       # Number of bytes read from this memory
system.mem_ctrls.bytes_read::switch_cpus1.inst         7808                       # Number of bytes read from this memory
system.mem_ctrls.bytes_read::switch_cpus1.data      2630080                       # Number of bytes read from this memory
system.mem_ctrls.bytes_read::switch_cpus2.inst         7808                       # Number of bytes read from this memory
system.mem_ctrls.bytes_read::switch_cpus2.data      2636544                       # Number of bytes read from this memory
system.mem_ctrls.bytes_read::switch_cpus3.inst         7808                       # Number of bytes read from this memory
system.mem_ctrls.bytes_read::switch_cpus3.data      2628416                       # Number of bytes read from this memory
system.mem_ctrls.bytes_read::total           10563776                       # Number of bytes read from this memory
system.mem_ctrls.bytes_inst_read::cpu0.inst           64                       # Number of instructions bytes read from this memory
system.mem_ctrls.bytes_inst_read::cpu1.inst           64                       # Number of instructions bytes read from this memory
system.mem_ctrls.bytes_inst_read::cpu2.inst           64                       # Number of instructions bytes read from this memory
system.mem_ctrls.bytes_inst_read::cpu3.inst           64                       # Number of instructions bytes read from this memory
system.mem_ctrls.bytes_inst_read::switch_cpus0.inst         7808                       # Number of instructions bytes read from this memory
system.mem_ctrls.bytes_inst_read::switch_cpus1.inst         7808                       # Number of instructions bytes read from this memory
system.mem_ctrls.bytes_inst_read::switch_cpus2.inst         7808                       # Number of instructions bytes read from this memory
system.mem_ctrls.bytes_inst_read::switch_cpus3.inst         7808                       # Number of instructions bytes read from this memory
system.mem_ctrls.bytes_inst_read::total         31488                       # Number of instructions bytes read from this memory
system.mem_ctrls.bytes_written::writebacks      2072448                       # Number of bytes written to this memory
system.mem_ctrls.bytes_written::total         2072448                       # Number of bytes written to this memory
system.mem_ctrls.num_reads::cpu0.inst               1                       # Number of read requests responded to by this memory
system.mem_ctrls.num_reads::cpu0.data               3                       # Number of read requests responded to by this memory
system.mem_ctrls.num_reads::cpu1.inst               1                       # Number of read requests responded to by this memory
system.mem_ctrls.num_reads::cpu1.data               3                       # Number of read requests responded to by this memory
system.mem_ctrls.num_reads::cpu2.inst               1                       # Number of read requests responded to by this memory
system.mem_ctrls.num_reads::cpu2.data               3                       # Number of read requests responded to by this memory
system.mem_ctrls.num_reads::cpu3.inst               1                       # Number of read requests responded to by this memory
system.mem_ctrls.num_reads::cpu3.data               3                       # Number of read requests responded to by this memory
system.mem_ctrls.num_reads::switch_cpus0.inst          122                       # Number of read requests responded to by this memory
system.mem_ctrls.num_reads::switch_cpus0.data        41195                       # Number of read requests responded to by this memory
system.mem_ctrls.num_reads::switch_cpus1.inst          122                       # Number of read requests responded to by this memory
system.mem_ctrls.num_reads::switch_cpus1.data        41095                       # Number of read requests responded to by this memory
system.mem_ctrls.num_reads::switch_cpus2.inst          122                       # Number of read requests responded to by this memory
system.mem_ctrls.num_reads::switch_cpus2.data        41196                       # Number of read requests responded to by this memory
system.mem_ctrls.num_reads::switch_cpus3.inst          122                       # Number of read requests responded to by this memory
system.mem_ctrls.num_reads::switch_cpus3.data        41069                       # Number of read requests responded to by this memory
system.mem_ctrls.num_reads::total              165059                       # Number of read requests responded to by this memory
system.mem_ctrls.num_writes::writebacks         32382                       # Number of write requests responded to by this memory
system.mem_ctrls.num_writes::total              32382                       # Number of write requests responded to by this memory
system.mem_ctrls.bw_read::cpu0.inst              9519                       # Total read bandwidth from this memory (bytes/s)
system.mem_ctrls.bw_read::cpu0.data             28558                       # Total read bandwidth from this memory (bytes/s)
system.mem_ctrls.bw_read::cpu1.inst              9519                       # Total read bandwidth from this memory (bytes/s)
system.mem_ctrls.bw_read::cpu1.data             28558                       # Total read bandwidth from this memory (bytes/s)
system.mem_ctrls.bw_read::cpu2.inst              9519                       # Total read bandwidth from this memory (bytes/s)
system.mem_ctrls.bw_read::cpu2.data             28558                       # Total read bandwidth from this memory (bytes/s)
system.mem_ctrls.bw_read::cpu3.inst              9519                       # Total read bandwidth from this memory (bytes/s)
system.mem_ctrls.bw_read::cpu3.data             28558                       # Total read bandwidth from this memory (bytes/s)
system.mem_ctrls.bw_read::switch_cpus0.inst      1161376                       # Total read bandwidth from this memory (bytes/s)
system.mem_ctrls.bw_read::switch_cpus0.data    392154626                       # Total read bandwidth from this memory (bytes/s)
system.mem_ctrls.bw_read::switch_cpus1.inst      1161376                       # Total read bandwidth from this memory (bytes/s)
system.mem_ctrls.bw_read::switch_cpus1.data    391202679                       # Total read bandwidth from this memory (bytes/s)
system.mem_ctrls.bw_read::switch_cpus2.inst      1161376                       # Total read bandwidth from this memory (bytes/s)
system.mem_ctrls.bw_read::switch_cpus2.data    392164146                       # Total read bandwidth from this memory (bytes/s)
system.mem_ctrls.bw_read::switch_cpus3.inst      1161376                       # Total read bandwidth from this memory (bytes/s)
system.mem_ctrls.bw_read::switch_cpus3.data    390955173                       # Total read bandwidth from this memory (bytes/s)
system.mem_ctrls.bw_read::total            1571274438                       # Total read bandwidth from this memory (bytes/s)
system.mem_ctrls.bw_inst_read::cpu0.inst         9519                       # Instruction read bandwidth from this memory (bytes/s)
system.mem_ctrls.bw_inst_read::cpu1.inst         9519                       # Instruction read bandwidth from this memory (bytes/s)
system.mem_ctrls.bw_inst_read::cpu2.inst         9519                       # Instruction read bandwidth from this memory (bytes/s)
system.mem_ctrls.bw_inst_read::cpu3.inst         9519                       # Instruction read bandwidth from this memory (bytes/s)
system.mem_ctrls.bw_inst_read::switch_cpus0.inst      1161376                       # Instruction read bandwidth from this memory (bytes/s)
system.mem_ctrls.bw_inst_read::switch_cpus1.inst      1161376                       # Instruction read bandwidth from this memory (bytes/s)
system.mem_ctrls.bw_inst_read::switch_cpus2.inst      1161376                       # Instruction read bandwidth from this memory (bytes/s)
system.mem_ctrls.bw_inst_read::switch_cpus3.inst      1161376                       # Instruction read bandwidth from this memory (bytes/s)
system.mem_ctrls.bw_inst_read::total          4683580                       # Instruction read bandwidth from this memory (bytes/s)
system.mem_ctrls.bw_write::writebacks       308259524                       # Write bandwidth from this memory (bytes/s)
system.mem_ctrls.bw_write::total            308259524                       # Write bandwidth from this memory (bytes/s)
system.mem_ctrls.bw_total::writebacks       308259524                       # Total bandwidth to/from this memory (bytes/s)
system.mem_ctrls.bw_total::cpu0.inst             9519                       # Total bandwidth to/from this memory (bytes/s)
system.mem_ctrls.bw_total::cpu0.data            28558                       # Total bandwidth to/from this memory (bytes/s)
system.mem_ctrls.bw_total::cpu1.inst             9519                       # Total bandwidth to/from this memory (bytes/s)
system.mem_ctrls.bw_total::cpu1.data            28558                       # Total bandwidth to/from this memory (bytes/s)
system.mem_ctrls.bw_total::cpu2.inst             9519                       # Total bandwidth to/from this memory (bytes/s)
system.mem_ctrls.bw_total::cpu2.data            28558                       # Total bandwidth to/from this memory (bytes/s)
system.mem_ctrls.bw_total::cpu3.inst             9519                       # Total bandwidth to/from this memory (bytes/s)
system.mem_ctrls.bw_total::cpu3.data            28558                       # Total bandwidth to/from this memory (bytes/s)
system.mem_ctrls.bw_total::switch_cpus0.inst      1161376                       # Total bandwidth to/from this memory (bytes/s)
system.mem_ctrls.bw_total::switch_cpus0.data    392154626                       # Total bandwidth to/from this memory (bytes/s)
system.mem_ctrls.bw_total::switch_cpus1.inst      1161376                       # Total bandwidth to/from this memory (bytes/s)
system.mem_ctrls.bw_total::switch_cpus1.data    391202679                       # Total bandwidth to/from this memory (bytes/s)
system.mem_ctrls.bw_total::switch_cpus2.inst      1161376                       # Total bandwidth to/from this memory (bytes/s)
system.mem_ctrls.bw_total::switch_cpus2.data    392164146                       # Total bandwidth to/from this memory (bytes/s)
system.mem_ctrls.bw_total::switch_cpus3.inst      1161376                       # Total bandwidth to/from this memory (bytes/s)
system.mem_ctrls.bw_total::switch_cpus3.data    390955173                       # Total bandwidth to/from this memory (bytes/s)
system.mem_ctrls.bw_total::total           1879533962                       # Total bandwidth to/from this memory (bytes/s)
system.mem_ctrls.readReqs                      165045                       # Number of read requests accepted
system.mem_ctrls.writeReqs                      32382                       # Number of write requests accepted
system.mem_ctrls.readBursts                    165045                       # Number of DRAM read bursts, including those serviced by the write queue
system.mem_ctrls.writeBursts                    32382                       # Number of DRAM write bursts, including those merged in the write queue
system.mem_ctrls.bytesReadDRAM               10562752                       # Total number of bytes read from DRAM
system.mem_ctrls.bytesReadWrQ                       0                       # Total number of bytes read from write queue
system.mem_ctrls.bytesWritten                 2071232                       # Total number of bytes written to DRAM
system.mem_ctrls.bytesReadSys                10562880                       # Total read bytes from the system interface side
system.mem_ctrls.bytesWrittenSys              2072448                       # Total written bytes from the system interface side
system.mem_ctrls.servicedByWrQ                      0                       # Number of DRAM read bursts serviced by the write queue
system.mem_ctrls.mergedWrBursts                     0                       # Number of DRAM write bursts merged with an existing one
system.mem_ctrls.neitherReadNorWriteReqs            0                       # Number of requests that are neither read nor write
system.mem_ctrls.perBankRdBursts::0             10369                       # Per bank write bursts
system.mem_ctrls.perBankRdBursts::1             10086                       # Per bank write bursts
system.mem_ctrls.perBankRdBursts::2             10067                       # Per bank write bursts
system.mem_ctrls.perBankRdBursts::3             10241                       # Per bank write bursts
system.mem_ctrls.perBankRdBursts::4              9937                       # Per bank write bursts
system.mem_ctrls.perBankRdBursts::5              9867                       # Per bank write bursts
system.mem_ctrls.perBankRdBursts::6             10359                       # Per bank write bursts
system.mem_ctrls.perBankRdBursts::7             10541                       # Per bank write bursts
system.mem_ctrls.perBankRdBursts::8             10768                       # Per bank write bursts
system.mem_ctrls.perBankRdBursts::9             10350                       # Per bank write bursts
system.mem_ctrls.perBankRdBursts::10            10037                       # Per bank write bursts
system.mem_ctrls.perBankRdBursts::11            10117                       # Per bank write bursts
system.mem_ctrls.perBankRdBursts::12            10107                       # Per bank write bursts
system.mem_ctrls.perBankRdBursts::13            10868                       # Per bank write bursts
system.mem_ctrls.perBankRdBursts::14            10890                       # Per bank write bursts
system.mem_ctrls.perBankRdBursts::15            10439                       # Per bank write bursts
system.mem_ctrls.perBankWrBursts::0              2013                       # Per bank write bursts
system.mem_ctrls.perBankWrBursts::1              1913                       # Per bank write bursts
system.mem_ctrls.perBankWrBursts::2              1884                       # Per bank write bursts
system.mem_ctrls.perBankWrBursts::3              1888                       # Per bank write bursts
system.mem_ctrls.perBankWrBursts::4              1885                       # Per bank write bursts
system.mem_ctrls.perBankWrBursts::5              1929                       # Per bank write bursts
system.mem_ctrls.perBankWrBursts::6              1956                       # Per bank write bursts
system.mem_ctrls.perBankWrBursts::7              2115                       # Per bank write bursts
system.mem_ctrls.perBankWrBursts::8              2136                       # Per bank write bursts
system.mem_ctrls.perBankWrBursts::9              2096                       # Per bank write bursts
system.mem_ctrls.perBankWrBursts::10             2062                       # Per bank write bursts
system.mem_ctrls.perBankWrBursts::11             1988                       # Per bank write bursts
system.mem_ctrls.perBankWrBursts::12             2021                       # Per bank write bursts
system.mem_ctrls.perBankWrBursts::13             2186                       # Per bank write bursts
system.mem_ctrls.perBankWrBursts::14             2238                       # Per bank write bursts
system.mem_ctrls.perBankWrBursts::15             2053                       # Per bank write bursts
system.mem_ctrls.numRdRetry                         0                       # Number of times read queue was full causing retry
system.mem_ctrls.numWrRetry                         0                       # Number of times write queue was full causing retry
system.mem_ctrls.totGap                    6722945223                       # Total gap between requests
system.mem_ctrls.readPktSize::0                     0                       # Read request sizes (log2)
system.mem_ctrls.readPktSize::1                     0                       # Read request sizes (log2)
system.mem_ctrls.readPktSize::2                     0                       # Read request sizes (log2)
system.mem_ctrls.readPktSize::3                     0                       # Read request sizes (log2)
system.mem_ctrls.readPktSize::4                     0                       # Read request sizes (log2)
system.mem_ctrls.readPktSize::5                     0                       # Read request sizes (log2)
system.mem_ctrls.readPktSize::6                165045                       # Read request sizes (log2)
system.mem_ctrls.writePktSize::0                    0                       # Write request sizes (log2)
system.mem_ctrls.writePktSize::1                    0                       # Write request sizes (log2)
system.mem_ctrls.writePktSize::2                    0                       # Write request sizes (log2)
system.mem_ctrls.writePktSize::3                    0                       # Write request sizes (log2)
system.mem_ctrls.writePktSize::4                    0                       # Write request sizes (log2)
system.mem_ctrls.writePktSize::5                    0                       # Write request sizes (log2)
system.mem_ctrls.writePktSize::6                32382                       # Write request sizes (log2)
system.mem_ctrls.rdQLenPdf::0                   51912                       # What read queue length does an incoming req see
system.mem_ctrls.rdQLenPdf::1                   54516                       # What read queue length does an incoming req see
system.mem_ctrls.rdQLenPdf::2                   35524                       # What read queue length does an incoming req see
system.mem_ctrls.rdQLenPdf::3                   16138                       # What read queue length does an incoming req see
system.mem_ctrls.rdQLenPdf::4                    5275                       # What read queue length does an incoming req see
system.mem_ctrls.rdQLenPdf::5                    1392                       # What read queue length does an incoming req see
system.mem_ctrls.rdQLenPdf::6                     260                       # What read queue length does an incoming req see
system.mem_ctrls.rdQLenPdf::7                      28                       # What read queue length does an incoming req see
system.mem_ctrls.rdQLenPdf::8                       0                       # What read queue length does an incoming req see
system.mem_ctrls.rdQLenPdf::9                       0                       # What read queue length does an incoming req see
system.mem_ctrls.rdQLenPdf::10                      0                       # What read queue length does an incoming req see
system.mem_ctrls.rdQLenPdf::11                      0                       # What read queue length does an incoming req see
system.mem_ctrls.rdQLenPdf::12                      0                       # What read queue length does an incoming req see
system.mem_ctrls.rdQLenPdf::13                      0                       # What read queue length does an incoming req see
system.mem_ctrls.rdQLenPdf::14                      0                       # What read queue length does an incoming req see
system.mem_ctrls.rdQLenPdf::15                      0                       # What read queue length does an incoming req see
system.mem_ctrls.rdQLenPdf::16                      0                       # What read queue length does an incoming req see
system.mem_ctrls.rdQLenPdf::17                      0                       # What read queue length does an incoming req see
system.mem_ctrls.rdQLenPdf::18                      0                       # What read queue length does an incoming req see
system.mem_ctrls.rdQLenPdf::19                      0                       # What read queue length does an incoming req see
system.mem_ctrls.rdQLenPdf::20                      0                       # What read queue length does an incoming req see
system.mem_ctrls.rdQLenPdf::21                      0                       # What read queue length does an incoming req see
system.mem_ctrls.rdQLenPdf::22                      0                       # What read queue length does an incoming req see
system.mem_ctrls.rdQLenPdf::23                      0                       # What read queue length does an incoming req see
system.mem_ctrls.rdQLenPdf::24                      0                       # What read queue length does an incoming req see
system.mem_ctrls.rdQLenPdf::25                      0                       # What read queue length does an incoming req see
system.mem_ctrls.rdQLenPdf::26                      0                       # What read queue length does an incoming req see
system.mem_ctrls.rdQLenPdf::27                      0                       # What read queue length does an incoming req see
system.mem_ctrls.rdQLenPdf::28                      0                       # What read queue length does an incoming req see
system.mem_ctrls.rdQLenPdf::29                      0                       # What read queue length does an incoming req see
system.mem_ctrls.rdQLenPdf::30                      0                       # What read queue length does an incoming req see
system.mem_ctrls.rdQLenPdf::31                      0                       # What read queue length does an incoming req see
system.mem_ctrls.wrQLenPdf::0                       1                       # What write queue length does an incoming req see
system.mem_ctrls.wrQLenPdf::1                       1                       # What write queue length does an incoming req see
system.mem_ctrls.wrQLenPdf::2                       1                       # What write queue length does an incoming req see
system.mem_ctrls.wrQLenPdf::3                       1                       # What write queue length does an incoming req see
system.mem_ctrls.wrQLenPdf::4                       1                       # What write queue length does an incoming req see
system.mem_ctrls.wrQLenPdf::5                       1                       # What write queue length does an incoming req see
system.mem_ctrls.wrQLenPdf::6                       1                       # What write queue length does an incoming req see
system.mem_ctrls.wrQLenPdf::7                       1                       # What write queue length does an incoming req see
system.mem_ctrls.wrQLenPdf::8                       1                       # What write queue length does an incoming req see
system.mem_ctrls.wrQLenPdf::9                       1                       # What write queue length does an incoming req see
system.mem_ctrls.wrQLenPdf::10                      1                       # What write queue length does an incoming req see
system.mem_ctrls.wrQLenPdf::11                      1                       # What write queue length does an incoming req see
system.mem_ctrls.wrQLenPdf::12                      1                       # What write queue length does an incoming req see
system.mem_ctrls.wrQLenPdf::13                      1                       # What write queue length does an incoming req see
system.mem_ctrls.wrQLenPdf::14                      1                       # What write queue length does an incoming req see
system.mem_ctrls.wrQLenPdf::15                     79                       # What write queue length does an incoming req see
system.mem_ctrls.wrQLenPdf::16                     97                       # What write queue length does an incoming req see
system.mem_ctrls.wrQLenPdf::17                   1367                       # What write queue length does an incoming req see
system.mem_ctrls.wrQLenPdf::18                   1922                       # What write queue length does an incoming req see
system.mem_ctrls.wrQLenPdf::19                   2042                       # What write queue length does an incoming req see
system.mem_ctrls.wrQLenPdf::20                   2063                       # What write queue length does an incoming req see
system.mem_ctrls.wrQLenPdf::21                   2058                       # What write queue length does an incoming req see
system.mem_ctrls.wrQLenPdf::22                   2069                       # What write queue length does an incoming req see
system.mem_ctrls.wrQLenPdf::23                   2046                       # What write queue length does an incoming req see
system.mem_ctrls.wrQLenPdf::24                   2040                       # What write queue length does an incoming req see
system.mem_ctrls.wrQLenPdf::25                   2052                       # What write queue length does an incoming req see
system.mem_ctrls.wrQLenPdf::26                   2065                       # What write queue length does an incoming req see
system.mem_ctrls.wrQLenPdf::27                   2059                       # What write queue length does an incoming req see
system.mem_ctrls.wrQLenPdf::28                   2058                       # What write queue length does an incoming req see
system.mem_ctrls.wrQLenPdf::29                   2052                       # What write queue length does an incoming req see
system.mem_ctrls.wrQLenPdf::30                   2065                       # What write queue length does an incoming req see
system.mem_ctrls.wrQLenPdf::31                   2084                       # What write queue length does an incoming req see
system.mem_ctrls.wrQLenPdf::32                   2127                       # What write queue length does an incoming req see
system.mem_ctrls.wrQLenPdf::33                     21                       # What write queue length does an incoming req see
system.mem_ctrls.wrQLenPdf::34                      1                       # What write queue length does an incoming req see
system.mem_ctrls.wrQLenPdf::35                      0                       # What write queue length does an incoming req see
system.mem_ctrls.wrQLenPdf::36                      0                       # What write queue length does an incoming req see
system.mem_ctrls.wrQLenPdf::37                      0                       # What write queue length does an incoming req see
system.mem_ctrls.wrQLenPdf::38                      0                       # What write queue length does an incoming req see
system.mem_ctrls.wrQLenPdf::39                      0                       # What write queue length does an incoming req see
system.mem_ctrls.wrQLenPdf::40                      0                       # What write queue length does an incoming req see
system.mem_ctrls.wrQLenPdf::41                      0                       # What write queue length does an incoming req see
system.mem_ctrls.wrQLenPdf::42                      0                       # What write queue length does an incoming req see
system.mem_ctrls.wrQLenPdf::43                      0                       # What write queue length does an incoming req see
system.mem_ctrls.wrQLenPdf::44                      0                       # What write queue length does an incoming req see
system.mem_ctrls.wrQLenPdf::45                      0                       # What write queue length does an incoming req see
system.mem_ctrls.wrQLenPdf::46                      0                       # What write queue length does an incoming req see
system.mem_ctrls.wrQLenPdf::47                      0                       # What write queue length does an incoming req see
system.mem_ctrls.wrQLenPdf::48                      0                       # What write queue length does an incoming req see
system.mem_ctrls.wrQLenPdf::49                      0                       # What write queue length does an incoming req see
system.mem_ctrls.wrQLenPdf::50                      0                       # What write queue length does an incoming req see
system.mem_ctrls.wrQLenPdf::51                      0                       # What write queue length does an incoming req see
system.mem_ctrls.wrQLenPdf::52                      0                       # What write queue length does an incoming req see
system.mem_ctrls.wrQLenPdf::53                      0                       # What write queue length does an incoming req see
system.mem_ctrls.wrQLenPdf::54                      0                       # What write queue length does an incoming req see
system.mem_ctrls.wrQLenPdf::55                      0                       # What write queue length does an incoming req see
system.mem_ctrls.wrQLenPdf::56                      0                       # What write queue length does an incoming req see
system.mem_ctrls.wrQLenPdf::57                      0                       # What write queue length does an incoming req see
system.mem_ctrls.wrQLenPdf::58                      0                       # What write queue length does an incoming req see
system.mem_ctrls.wrQLenPdf::59                      0                       # What write queue length does an incoming req see
system.mem_ctrls.wrQLenPdf::60                      0                       # What write queue length does an incoming req see
system.mem_ctrls.wrQLenPdf::61                      0                       # What write queue length does an incoming req see
system.mem_ctrls.wrQLenPdf::62                      0                       # What write queue length does an incoming req see
system.mem_ctrls.wrQLenPdf::63                      0                       # What write queue length does an incoming req see
system.mem_ctrls.bytesPerActivate::samples       147634                       # Bytes accessed per row activation
system.mem_ctrls.bytesPerActivate::mean     85.566848                       # Bytes accessed per row activation
system.mem_ctrls.bytesPerActivate::gmean    72.719640                       # Bytes accessed per row activation
system.mem_ctrls.bytesPerActivate::stdev    88.593325                       # Bytes accessed per row activation
system.mem_ctrls.bytesPerActivate::0-127       133699     90.56%     90.56% # Bytes accessed per row activation
system.mem_ctrls.bytesPerActivate::128-255         6165      4.18%     94.74% # Bytes accessed per row activation
system.mem_ctrls.bytesPerActivate::256-383         3872      2.62%     97.36% # Bytes accessed per row activation
system.mem_ctrls.bytesPerActivate::384-511         2282      1.55%     98.91% # Bytes accessed per row activation
system.mem_ctrls.bytesPerActivate::512-639          898      0.61%     99.51% # Bytes accessed per row activation
system.mem_ctrls.bytesPerActivate::640-767          183      0.12%     99.64% # Bytes accessed per row activation
system.mem_ctrls.bytesPerActivate::768-895           93      0.06%     99.70% # Bytes accessed per row activation
system.mem_ctrls.bytesPerActivate::896-1023           47      0.03%     99.73% # Bytes accessed per row activation
system.mem_ctrls.bytesPerActivate::1024-1151          395      0.27%    100.00% # Bytes accessed per row activation
system.mem_ctrls.bytesPerActivate::total       147634                       # Bytes accessed per row activation
system.mem_ctrls.rdPerTurnAround::samples         2009                       # Reads before turning the bus around for writes
system.mem_ctrls.rdPerTurnAround::mean      82.151817                       # Reads before turning the bus around for writes
system.mem_ctrls.rdPerTurnAround::gmean     72.588656                       # Reads before turning the bus around for writes
system.mem_ctrls.rdPerTurnAround::stdev    274.614956                       # Reads before turning the bus around for writes
system.mem_ctrls.rdPerTurnAround::0-511          2007     99.90%     99.90% # Reads before turning the bus around for writes
system.mem_ctrls.rdPerTurnAround::512-1023            1      0.05%     99.95% # Reads before turning the bus around for writes
system.mem_ctrls.rdPerTurnAround::12288-12799            1      0.05%    100.00% # Reads before turning the bus around for writes
system.mem_ctrls.rdPerTurnAround::total          2009                       # Reads before turning the bus around for writes
system.mem_ctrls.wrPerTurnAround::samples         2008                       # Writes before turning the bus around for reads
system.mem_ctrls.wrPerTurnAround::mean      16.110060                       # Writes before turning the bus around for reads
system.mem_ctrls.wrPerTurnAround::gmean     16.102652                       # Writes before turning the bus around for reads
system.mem_ctrls.wrPerTurnAround::stdev      0.513241                       # Writes before turning the bus around for reads
system.mem_ctrls.wrPerTurnAround::16             1909     95.07%     95.07% # Writes before turning the bus around for reads
system.mem_ctrls.wrPerTurnAround::17               13      0.65%     95.72% # Writes before turning the bus around for reads
system.mem_ctrls.wrPerTurnAround::18               58      2.89%     98.61% # Writes before turning the bus around for reads
system.mem_ctrls.wrPerTurnAround::19               20      1.00%     99.60% # Writes before turning the bus around for reads
system.mem_ctrls.wrPerTurnAround::20                8      0.40%    100.00% # Writes before turning the bus around for reads
system.mem_ctrls.wrPerTurnAround::total          2008                       # Writes before turning the bus around for reads
system.mem_ctrls.totQLat                   6273651527                       # Total ticks spent queuing
system.mem_ctrls.totMemAccLat              9368207777                       # Total ticks spent from burst creation until serviced by the DRAM
system.mem_ctrls.totBusLat                  825215000                       # Total ticks spent in databus transfers
system.mem_ctrls.avgQLat                     38011.76                       # Average queueing delay per DRAM burst
system.mem_ctrls.avgBusLat                    4999.94                       # Average bus latency per DRAM burst
system.mem_ctrls.avgMemAccLat                56761.54                       # Average memory access latency per DRAM burst
system.mem_ctrls.avgRdBW                      1571.12                       # Average DRAM read bandwidth in MiByte/s
system.mem_ctrls.avgWrBW                       308.08                       # Average achieved write bandwidth in MiByte/s
system.mem_ctrls.avgRdBWSys                   1571.14                       # Average system read bandwidth in MiByte/s
system.mem_ctrls.avgWrBWSys                    308.26                       # Average system write bandwidth in MiByte/s
system.mem_ctrls.peakBW                      12800.00                       # Theoretical peak bandwidth in MiByte/s
system.mem_ctrls.busUtil                        14.68                       # Data bus utilization in percentage
system.mem_ctrls.busUtilRead                    12.27                       # Data bus utilization in percentage for reads
system.mem_ctrls.busUtilWrite                    2.41                       # Data bus utilization in percentage for writes
system.mem_ctrls.avgRdQLen                       2.53                       # Average read queue length when enqueuing
system.mem_ctrls.avgWrQLen                      23.98                       # Average write queue length when enqueuing
system.mem_ctrls.readRowHits                    25087                       # Number of row buffer hits during reads
system.mem_ctrls.writeRowHits                   24674                       # Number of row buffer hits during writes
system.mem_ctrls.readRowHitRate                 15.20                       # Row buffer hit rate for reads
system.mem_ctrls.writeRowHitRate                76.20                       # Row buffer hit rate for writes
system.mem_ctrls.avgGap                      34052.82                       # Average gap between requests
system.mem_ctrls.pageHitRate                    25.20                       # Row buffer hit rate, read and write combined
system.mem_ctrls_0.actEnergy                518292600                       # Energy for activate commands per rank (pJ)
system.mem_ctrls_0.preEnergy                275456280                       # Energy for precharge commands per rank (pJ)
system.mem_ctrls_0.readEnergy               581674380                       # Energy for read commands per rank (pJ)
system.mem_ctrls_0.writeEnergy               81343260                       # Energy for write commands per rank (pJ)
system.mem_ctrls_0.refreshEnergy         530434320.000000                       # Energy for refresh commands per rank (pJ)
system.mem_ctrls_0.actBackEnergy           1443123150                       # Energy for active background per rank (pJ)
system.mem_ctrls_0.preBackEnergy             11139360                       # Energy for precharge background per rank (pJ)
system.mem_ctrls_0.actPowerDownEnergy      1595819880                       # Energy for active power-down per rank (pJ)
system.mem_ctrls_0.prePowerDownEnergy        11402880                       # Energy for precharge power-down per rank (pJ)
system.mem_ctrls_0.selfRefreshEnergy                0                       # Energy for self refresh per rank (pJ)
system.mem_ctrls_0.totalEnergy             5048686110                       # Total energy per rank (pJ)
system.mem_ctrls_0.averagePower            750.951463                       # Core power per rank (mW)
system.mem_ctrls_0.totalIdleTime           3529045777                       # Total Idle time Per DRAM Rank
system.mem_ctrls_0.memoryStateTime::IDLE      4010954                       # Time in different power states
system.mem_ctrls_0.memoryStateTime::REF     224380000                       # Time in different power states
system.mem_ctrls_0.memoryStateTime::SREF            0                       # Time in different power states
system.mem_ctrls_0.memoryStateTime::PRE_PDN     29759343                       # Time in different power states
system.mem_ctrls_0.memoryStateTime::ACT    2965541234                       # Time in different power states
system.mem_ctrls_0.memoryStateTime::ACT_PDN   3499360811                       # Time in different power states
system.mem_ctrls_1.actEnergy                535892700                       # Energy for activate commands per rank (pJ)
system.mem_ctrls_1.preEnergy                284807160                       # Energy for precharge commands per rank (pJ)
system.mem_ctrls_1.readEnergy               596732640                       # Energy for read commands per rank (pJ)
system.mem_ctrls_1.writeEnergy               87565500                       # Energy for write commands per rank (pJ)
system.mem_ctrls_1.refreshEnergy         530434320.000000                       # Energy for refresh commands per rank (pJ)
system.mem_ctrls_1.actBackEnergy           1487520450                       # Energy for active background per rank (pJ)
system.mem_ctrls_1.preBackEnergy             11356320                       # Energy for precharge background per rank (pJ)
system.mem_ctrls_1.actPowerDownEnergy      1555807590                       # Energy for active power-down per rank (pJ)
system.mem_ctrls_1.prePowerDownEnergy         7493280                       # Energy for precharge power-down per rank (pJ)
system.mem_ctrls_1.selfRefreshEnergy                0                       # Energy for self refresh per rank (pJ)
system.mem_ctrls_1.totalEnergy             5097609960                       # Total energy per rank (pJ)
system.mem_ctrls_1.averagePower            758.228492                       # Core power per rank (mW)
system.mem_ctrls_1.totalIdleTime           3431287588                       # Total Idle time Per DRAM Rank
system.mem_ctrls_1.memoryStateTime::IDLE      4477355                       # Time in different power states
system.mem_ctrls_1.memoryStateTime::REF     224386000                       # Time in different power states
system.mem_ctrls_1.memoryStateTime::SREF            0                       # Time in different power states
system.mem_ctrls_1.memoryStateTime::PRE_PDN     19582249                       # Time in different power states
system.mem_ctrls_1.memoryStateTime::ACT    3062901399                       # Time in different power states
system.mem_ctrls_1.memoryStateTime::ACT_PDN   3411705339                       # Time in different power states
system.pwrStateResidencyTicks::UNDEFINED 23749795425342                       # Cumulative time (in ticks) in various power states
system.cpu_voltage_domain.voltage                   1                       # Voltage in Volts
system.cpu_clk_domain.clock                       833                       # Clock period in ticks
system.cpu0.dtb.walker.pwrStateResidencyTicks::UNDEFINED 23749795425342                       # Cumulative time (in ticks) in various power states
system.cpu0.apic_clk_domain.clock               13328                       # Clock period in ticks
system.cpu0.interrupts.pwrStateResidencyTicks::UNDEFINED 23749795425342                       # Cumulative time (in ticks) in various power states
system.cpu0.itb.walker.pwrStateResidencyTicks::UNDEFINED 23749795425342                       # Cumulative time (in ticks) in various power states
system.cpu0.workload.num_syscalls                   0                       # Number of system calls
system.cpu0.pwrStateResidencyTicks::ON     6723062342                       # Cumulative time (in ticks) in various power states
system.cpu0.numCycles                              11                       # number of cpu cycles simulated
system.cpu0.numWorkItemsStarted                     0                       # number of work items this cpu started
system.cpu0.numWorkItemsCompleted                   0                       # number of work items this cpu completed
system.cpu0.committedInsts                          5                       # Number of instructions committed
system.cpu0.committedOps                            9                       # Number of ops (including micro ops) committed
system.cpu0.num_int_alu_accesses                    8                       # Number of integer alu accesses
system.cpu0.num_fp_alu_accesses                     4                       # Number of float alu accesses
system.cpu0.num_func_calls                          0                       # number of times a function call or return occured
system.cpu0.num_conditional_control_insts            1                       # number of instructions that are conditional controls
system.cpu0.num_int_insts                           8                       # number of integer instructions
system.cpu0.num_fp_insts                            4                       # number of float instructions
system.cpu0.num_int_register_reads                 15                       # number of times the integer registers were read
system.cpu0.num_int_register_writes                 4                       # number of times the integer registers were written
system.cpu0.num_fp_register_reads                   4                       # number of times the floating registers were read
system.cpu0.num_fp_register_writes                  3                       # number of times the floating registers were written
system.cpu0.num_cc_register_reads                   5                       # number of times the CC registers were read
system.cpu0.num_cc_register_writes                  2                       # number of times the CC registers were written
system.cpu0.num_mem_refs                            3                       # number of memory refs
system.cpu0.num_load_insts                          2                       # Number of load instructions
system.cpu0.num_store_insts                         1                       # Number of store instructions
system.cpu0.num_idle_cycles                         0                       # Number of idle cycles
system.cpu0.num_busy_cycles                        11                       # Number of busy cycles
system.cpu0.not_idle_fraction                       1                       # Percentage of non-idle cycles
system.cpu0.idle_fraction                           0                       # Percentage of idle cycles
system.cpu0.Branches                                1                       # Number of branches fetched
system.cpu0.op_class::No_OpClass                    0      0.00%      0.00% # Class of executed instruction
system.cpu0.op_class::IntAlu                        5     55.56%     55.56% # Class of executed instruction
system.cpu0.op_class::IntMult                       0      0.00%     55.56% # Class of executed instruction
system.cpu0.op_class::IntDiv                        0      0.00%     55.56% # Class of executed instruction
system.cpu0.op_class::FloatAdd                      1     11.11%     66.67% # Class of executed instruction
system.cpu0.op_class::FloatCmp                      0      0.00%     66.67% # Class of executed instruction
system.cpu0.op_class::FloatCvt                      0      0.00%     66.67% # Class of executed instruction
system.cpu0.op_class::FloatMult                     0      0.00%     66.67% # Class of executed instruction
system.cpu0.op_class::FloatMultAcc                  0      0.00%     66.67% # Class of executed instruction
system.cpu0.op_class::FloatDiv                      0      0.00%     66.67% # Class of executed instruction
system.cpu0.op_class::FloatMisc                     0      0.00%     66.67% # Class of executed instruction
system.cpu0.op_class::FloatSqrt                     0      0.00%     66.67% # Class of executed instruction
system.cpu0.op_class::SimdAdd                       0      0.00%     66.67% # Class of executed instruction
system.cpu0.op_class::SimdAddAcc                    0      0.00%     66.67% # Class of executed instruction
system.cpu0.op_class::SimdAlu                       0      0.00%     66.67% # Class of executed instruction
system.cpu0.op_class::SimdCmp                       0      0.00%     66.67% # Class of executed instruction
system.cpu0.op_class::SimdCvt                       0      0.00%     66.67% # Class of executed instruction
system.cpu0.op_class::SimdMisc                      0      0.00%     66.67% # Class of executed instruction
system.cpu0.op_class::SimdMult                      0      0.00%     66.67% # Class of executed instruction
system.cpu0.op_class::SimdMultAcc                   0      0.00%     66.67% # Class of executed instruction
system.cpu0.op_class::SimdShift                     0      0.00%     66.67% # Class of executed instruction
system.cpu0.op_class::SimdShiftAcc                  0      0.00%     66.67% # Class of executed instruction
system.cpu0.op_class::SimdSqrt                      0      0.00%     66.67% # Class of executed instruction
system.cpu0.op_class::SimdFloatAdd                  0      0.00%     66.67% # Class of executed instruction
system.cpu0.op_class::SimdFloatAlu                  0      0.00%     66.67% # Class of executed instruction
system.cpu0.op_class::SimdFloatCmp                  0      0.00%     66.67% # Class of executed instruction
system.cpu0.op_class::SimdFloatCvt                  0      0.00%     66.67% # Class of executed instruction
system.cpu0.op_class::SimdFloatDiv                  0      0.00%     66.67% # Class of executed instruction
system.cpu0.op_class::SimdFloatMisc                 0      0.00%     66.67% # Class of executed instruction
system.cpu0.op_class::SimdFloatMult                 0      0.00%     66.67% # Class of executed instruction
system.cpu0.op_class::SimdFloatMultAcc              0      0.00%     66.67% # Class of executed instruction
system.cpu0.op_class::SimdFloatSqrt                 0      0.00%     66.67% # Class of executed instruction
system.cpu0.op_class::MemRead                       0      0.00%     66.67% # Class of executed instruction
system.cpu0.op_class::MemWrite                      0      0.00%     66.67% # Class of executed instruction
system.cpu0.op_class::FloatMemRead                  2     22.22%     88.89% # Class of executed instruction
system.cpu0.op_class::FloatMemWrite                 1     11.11%    100.00% # Class of executed instruction
system.cpu0.op_class::IprAccess                     0      0.00%    100.00% # Class of executed instruction
system.cpu0.op_class::InstPrefetch                  0      0.00%    100.00% # Class of executed instruction
system.cpu0.op_class::total                         9                       # Class of executed instruction
system.cpu0.dcache.tags.pwrStateResidencyTicks::UNDEFINED 23749795425342                       # Cumulative time (in ticks) in various power states
system.cpu0.dcache.tags.replacements            57708                       # number of replacements
system.cpu0.dcache.tags.tagsinuse          127.814790                       # Cycle average of tags in use
system.cpu0.dcache.tags.total_refs             429774                       # Total number of references to valid blocks.
system.cpu0.dcache.tags.sampled_refs            57708                       # Sample count of references to valid blocks.
system.cpu0.dcache.tags.avg_refs             7.447390                       # Average number of references to valid blocks.
system.cpu0.dcache.tags.warmup_cycle     23743094072789                       # Cycle when the warmup percentage was hit.
system.cpu0.dcache.tags.occ_blocks::cpu0.data     0.008834                       # Average occupied blocks per requestor
system.cpu0.dcache.tags.occ_blocks::switch_cpus0.data   127.805956                       # Average occupied blocks per requestor
system.cpu0.dcache.tags.occ_percent::cpu0.data     0.000069                       # Average percentage of cache occupancy
system.cpu0.dcache.tags.occ_percent::switch_cpus0.data     0.998484                       # Average percentage of cache occupancy
system.cpu0.dcache.tags.occ_percent::total     0.998553                       # Average percentage of cache occupancy
system.cpu0.dcache.tags.occ_task_id_blocks::1024          128                       # Occupied blocks per task id
system.cpu0.dcache.tags.age_task_id_blocks_1024::0           82                       # Occupied blocks per task id
system.cpu0.dcache.tags.age_task_id_blocks_1024::1           46                       # Occupied blocks per task id
system.cpu0.dcache.tags.occ_task_id_percent::1024            1                       # Percentage of cache occupancy per task id
system.cpu0.dcache.tags.tag_accesses          3996708                       # Number of tag accesses
system.cpu0.dcache.tags.data_accesses         3996708                       # Number of data accesses
system.cpu0.dcache.pwrStateResidencyTicks::UNDEFINED 23749795425342                       # Cumulative time (in ticks) in various power states
system.cpu0.dcache.ReadReq_hits::switch_cpus0.data       353123                       # number of ReadReq hits
system.cpu0.dcache.ReadReq_hits::total         353123                       # number of ReadReq hits
system.cpu0.dcache.WriteReq_hits::switch_cpus0.data        78469                       # number of WriteReq hits
system.cpu0.dcache.WriteReq_hits::total         78469                       # number of WriteReq hits
system.cpu0.dcache.demand_hits::switch_cpus0.data       431592                       # number of demand (read+write) hits
system.cpu0.dcache.demand_hits::total          431592                       # number of demand (read+write) hits
system.cpu0.dcache.overall_hits::switch_cpus0.data       431592                       # number of overall hits
system.cpu0.dcache.overall_hits::total         431592                       # number of overall hits
system.cpu0.dcache.ReadReq_misses::cpu0.data            2                       # number of ReadReq misses
system.cpu0.dcache.ReadReq_misses::switch_cpus0.data        45405                       # number of ReadReq misses
system.cpu0.dcache.ReadReq_misses::total        45407                       # number of ReadReq misses
system.cpu0.dcache.WriteReq_misses::cpu0.data            1                       # number of WriteReq misses
system.cpu0.dcache.WriteReq_misses::switch_cpus0.data        15359                       # number of WriteReq misses
system.cpu0.dcache.WriteReq_misses::total        15360                       # number of WriteReq misses
system.cpu0.dcache.demand_misses::cpu0.data            3                       # number of demand (read+write) misses
system.cpu0.dcache.demand_misses::switch_cpus0.data        60764                       # number of demand (read+write) misses
system.cpu0.dcache.demand_misses::total         60767                       # number of demand (read+write) misses
system.cpu0.dcache.overall_misses::cpu0.data            3                       # number of overall misses
system.cpu0.dcache.overall_misses::switch_cpus0.data        60764                       # number of overall misses
system.cpu0.dcache.overall_misses::total        60767                       # number of overall misses
system.cpu0.dcache.ReadReq_miss_latency::switch_cpus0.data   4316715956                       # number of ReadReq miss cycles
system.cpu0.dcache.ReadReq_miss_latency::total   4316715956                       # number of ReadReq miss cycles
system.cpu0.dcache.WriteReq_miss_latency::switch_cpus0.data   1482735835                       # number of WriteReq miss cycles
system.cpu0.dcache.WriteReq_miss_latency::total   1482735835                       # number of WriteReq miss cycles
system.cpu0.dcache.demand_miss_latency::switch_cpus0.data   5799451791                       # number of demand (read+write) miss cycles
system.cpu0.dcache.demand_miss_latency::total   5799451791                       # number of demand (read+write) miss cycles
system.cpu0.dcache.overall_miss_latency::switch_cpus0.data   5799451791                       # number of overall miss cycles
system.cpu0.dcache.overall_miss_latency::total   5799451791                       # number of overall miss cycles
system.cpu0.dcache.ReadReq_accesses::cpu0.data            2                       # number of ReadReq accesses(hits+misses)
system.cpu0.dcache.ReadReq_accesses::switch_cpus0.data       398528                       # number of ReadReq accesses(hits+misses)
system.cpu0.dcache.ReadReq_accesses::total       398530                       # number of ReadReq accesses(hits+misses)
system.cpu0.dcache.WriteReq_accesses::cpu0.data            1                       # number of WriteReq accesses(hits+misses)
system.cpu0.dcache.WriteReq_accesses::switch_cpus0.data        93828                       # number of WriteReq accesses(hits+misses)
system.cpu0.dcache.WriteReq_accesses::total        93829                       # number of WriteReq accesses(hits+misses)
system.cpu0.dcache.demand_accesses::cpu0.data            3                       # number of demand (read+write) accesses
system.cpu0.dcache.demand_accesses::switch_cpus0.data       492356                       # number of demand (read+write) accesses
system.cpu0.dcache.demand_accesses::total       492359                       # number of demand (read+write) accesses
system.cpu0.dcache.overall_accesses::cpu0.data            3                       # number of overall (read+write) accesses
system.cpu0.dcache.overall_accesses::switch_cpus0.data       492356                       # number of overall (read+write) accesses
system.cpu0.dcache.overall_accesses::total       492359                       # number of overall (read+write) accesses
system.cpu0.dcache.ReadReq_miss_rate::cpu0.data            1                       # miss rate for ReadReq accesses
system.cpu0.dcache.ReadReq_miss_rate::switch_cpus0.data     0.113932                       # miss rate for ReadReq accesses
system.cpu0.dcache.ReadReq_miss_rate::total     0.113936                       # miss rate for ReadReq accesses
system.cpu0.dcache.WriteReq_miss_rate::cpu0.data            1                       # miss rate for WriteReq accesses
system.cpu0.dcache.WriteReq_miss_rate::switch_cpus0.data     0.163693                       # miss rate for WriteReq accesses
system.cpu0.dcache.WriteReq_miss_rate::total     0.163702                       # miss rate for WriteReq accesses
system.cpu0.dcache.demand_miss_rate::cpu0.data            1                       # miss rate for demand accesses
system.cpu0.dcache.demand_miss_rate::switch_cpus0.data     0.123415                       # miss rate for demand accesses
system.cpu0.dcache.demand_miss_rate::total     0.123420                       # miss rate for demand accesses
system.cpu0.dcache.overall_miss_rate::cpu0.data            1                       # miss rate for overall accesses
system.cpu0.dcache.overall_miss_rate::switch_cpus0.data     0.123415                       # miss rate for overall accesses
system.cpu0.dcache.overall_miss_rate::total     0.123420                       # miss rate for overall accesses
system.cpu0.dcache.ReadReq_avg_miss_latency::switch_cpus0.data 95071.378835                       # average ReadReq miss latency
system.cpu0.dcache.ReadReq_avg_miss_latency::total 95067.191314                       # average ReadReq miss latency
system.cpu0.dcache.WriteReq_avg_miss_latency::switch_cpus0.data 96538.565987                       # average WriteReq miss latency
system.cpu0.dcache.WriteReq_avg_miss_latency::total 96532.280924                       # average WriteReq miss latency
system.cpu0.dcache.demand_avg_miss_latency::switch_cpus0.data 95442.232095                       # average overall miss latency
system.cpu0.dcache.demand_avg_miss_latency::total 95437.520217                       # average overall miss latency
system.cpu0.dcache.overall_avg_miss_latency::switch_cpus0.data 95442.232095                       # average overall miss latency
system.cpu0.dcache.overall_avg_miss_latency::total 95437.520217                       # average overall miss latency
system.cpu0.dcache.blocked_cycles::no_mshrs            0                       # number of cycles access was blocked
system.cpu0.dcache.blocked_cycles::no_targets            0                       # number of cycles access was blocked
system.cpu0.dcache.blocked::no_mshrs                0                       # number of cycles access was blocked
system.cpu0.dcache.blocked::no_targets              0                       # number of cycles access was blocked
system.cpu0.dcache.avg_blocked_cycles::no_mshrs          nan                       # average number of cycles each access was blocked
system.cpu0.dcache.avg_blocked_cycles::no_targets          nan                       # average number of cycles each access was blocked
system.cpu0.dcache.writebacks::writebacks        16018                       # number of writebacks
system.cpu0.dcache.writebacks::total            16018                       # number of writebacks
system.cpu0.dcache.ReadReq_mshr_hits::switch_cpus0.data            4                       # number of ReadReq MSHR hits
system.cpu0.dcache.ReadReq_mshr_hits::total            4                       # number of ReadReq MSHR hits
system.cpu0.dcache.WriteReq_mshr_hits::switch_cpus0.data         2927                       # number of WriteReq MSHR hits
system.cpu0.dcache.WriteReq_mshr_hits::total         2927                       # number of WriteReq MSHR hits
system.cpu0.dcache.demand_mshr_hits::switch_cpus0.data         2931                       # number of demand (read+write) MSHR hits
system.cpu0.dcache.demand_mshr_hits::total         2931                       # number of demand (read+write) MSHR hits
system.cpu0.dcache.overall_mshr_hits::switch_cpus0.data         2931                       # number of overall MSHR hits
system.cpu0.dcache.overall_mshr_hits::total         2931                       # number of overall MSHR hits
system.cpu0.dcache.ReadReq_mshr_misses::switch_cpus0.data        45401                       # number of ReadReq MSHR misses
system.cpu0.dcache.ReadReq_mshr_misses::total        45401                       # number of ReadReq MSHR misses
system.cpu0.dcache.WriteReq_mshr_misses::switch_cpus0.data        12432                       # number of WriteReq MSHR misses
system.cpu0.dcache.WriteReq_mshr_misses::total        12432                       # number of WriteReq MSHR misses
system.cpu0.dcache.demand_mshr_misses::switch_cpus0.data        57833                       # number of demand (read+write) MSHR misses
system.cpu0.dcache.demand_mshr_misses::total        57833                       # number of demand (read+write) MSHR misses
system.cpu0.dcache.overall_mshr_misses::switch_cpus0.data        57833                       # number of overall MSHR misses
system.cpu0.dcache.overall_mshr_misses::total        57833                       # number of overall MSHR misses
system.cpu0.dcache.ReadReq_mshr_miss_latency::switch_cpus0.data   4240801334                       # number of ReadReq MSHR miss cycles
system.cpu0.dcache.ReadReq_mshr_miss_latency::total   4240801334                       # number of ReadReq MSHR miss cycles
system.cpu0.dcache.WriteReq_mshr_miss_latency::switch_cpus0.data   1203152713                       # number of WriteReq MSHR miss cycles
system.cpu0.dcache.WriteReq_mshr_miss_latency::total   1203152713                       # number of WriteReq MSHR miss cycles
system.cpu0.dcache.demand_mshr_miss_latency::switch_cpus0.data   5443954047                       # number of demand (read+write) MSHR miss cycles
system.cpu0.dcache.demand_mshr_miss_latency::total   5443954047                       # number of demand (read+write) MSHR miss cycles
system.cpu0.dcache.overall_mshr_miss_latency::switch_cpus0.data   5443954047                       # number of overall MSHR miss cycles
system.cpu0.dcache.overall_mshr_miss_latency::total   5443954047                       # number of overall MSHR miss cycles
system.cpu0.dcache.ReadReq_mshr_miss_rate::switch_cpus0.data     0.113922                       # mshr miss rate for ReadReq accesses
system.cpu0.dcache.ReadReq_mshr_miss_rate::total     0.113921                       # mshr miss rate for ReadReq accesses
system.cpu0.dcache.WriteReq_mshr_miss_rate::switch_cpus0.data     0.132498                       # mshr miss rate for WriteReq accesses
system.cpu0.dcache.WriteReq_mshr_miss_rate::total     0.132496                       # mshr miss rate for WriteReq accesses
system.cpu0.dcache.demand_mshr_miss_rate::switch_cpus0.data     0.117462                       # mshr miss rate for demand accesses
system.cpu0.dcache.demand_mshr_miss_rate::total     0.117461                       # mshr miss rate for demand accesses
system.cpu0.dcache.overall_mshr_miss_rate::switch_cpus0.data     0.117462                       # mshr miss rate for overall accesses
system.cpu0.dcache.overall_mshr_miss_rate::total     0.117461                       # mshr miss rate for overall accesses
system.cpu0.dcache.ReadReq_avg_mshr_miss_latency::switch_cpus0.data 93407.663576                       # average ReadReq mshr miss latency
system.cpu0.dcache.ReadReq_avg_mshr_miss_latency::total 93407.663576                       # average ReadReq mshr miss latency
system.cpu0.dcache.WriteReq_avg_mshr_miss_latency::switch_cpus0.data 96778.693131                       # average WriteReq mshr miss latency
system.cpu0.dcache.WriteReq_avg_mshr_miss_latency::total 96778.693131                       # average WriteReq mshr miss latency
system.cpu0.dcache.demand_avg_mshr_miss_latency::switch_cpus0.data 94132.312814                       # average overall mshr miss latency
system.cpu0.dcache.demand_avg_mshr_miss_latency::total 94132.312814                       # average overall mshr miss latency
system.cpu0.dcache.overall_avg_mshr_miss_latency::switch_cpus0.data 94132.312814                       # average overall mshr miss latency
system.cpu0.dcache.overall_avg_mshr_miss_latency::total 94132.312814                       # average overall mshr miss latency
system.cpu0.dtb_walker_cache.tags.pwrStateResidencyTicks::UNDEFINED 23749795425342                       # Cumulative time (in ticks) in various power states
system.cpu0.dtb_walker_cache.tags.replacements            0                       # number of replacements
system.cpu0.dtb_walker_cache.tags.tagsinuse            0                       # Cycle average of tags in use
system.cpu0.dtb_walker_cache.tags.total_refs            0                       # Total number of references to valid blocks.
system.cpu0.dtb_walker_cache.tags.sampled_refs            0                       # Sample count of references to valid blocks.
system.cpu0.dtb_walker_cache.tags.avg_refs          nan                       # Average number of references to valid blocks.
system.cpu0.dtb_walker_cache.tags.warmup_cycle            0                       # Cycle when the warmup percentage was hit.
system.cpu0.dtb_walker_cache.tags.tag_accesses            0                       # Number of tag accesses
system.cpu0.dtb_walker_cache.tags.data_accesses            0                       # Number of data accesses
system.cpu0.dtb_walker_cache.pwrStateResidencyTicks::UNDEFINED 23749795425342                       # Cumulative time (in ticks) in various power states
system.cpu0.dtb_walker_cache.blocked_cycles::no_mshrs            0                       # number of cycles access was blocked
system.cpu0.dtb_walker_cache.blocked_cycles::no_targets            0                       # number of cycles access was blocked
system.cpu0.dtb_walker_cache.blocked::no_mshrs            0                       # number of cycles access was blocked
system.cpu0.dtb_walker_cache.blocked::no_targets            0                       # number of cycles access was blocked
system.cpu0.dtb_walker_cache.avg_blocked_cycles::no_mshrs          nan                       # average number of cycles each access was blocked
system.cpu0.dtb_walker_cache.avg_blocked_cycles::no_targets          nan                       # average number of cycles each access was blocked
system.cpu0.icache.tags.pwrStateResidencyTicks::UNDEFINED 23749795425342                       # Cumulative time (in ticks) in various power states
system.cpu0.icache.tags.replacements                0                       # number of replacements
system.cpu0.icache.tags.tagsinuse           39.605127                       # Cycle average of tags in use
system.cpu0.icache.tags.total_refs                  0                       # Total number of references to valid blocks.
system.cpu0.icache.tags.sampled_refs                0                       # Sample count of references to valid blocks.
system.cpu0.icache.tags.avg_refs                  nan                       # Average number of references to valid blocks.
system.cpu0.icache.tags.warmup_cycle                0                       # Cycle when the warmup percentage was hit.
system.cpu0.icache.tags.occ_blocks::cpu0.inst     1.000000                       # Average occupied blocks per requestor
system.cpu0.icache.tags.occ_blocks::switch_cpus0.inst    38.605127                       # Average occupied blocks per requestor
system.cpu0.icache.tags.occ_percent::cpu0.inst     0.007812                       # Average percentage of cache occupancy
system.cpu0.icache.tags.occ_percent::switch_cpus0.inst     0.301603                       # Average percentage of cache occupancy
system.cpu0.icache.tags.occ_percent::total     0.309415                       # Average percentage of cache occupancy
system.cpu0.icache.tags.occ_task_id_blocks::1024          123                       # Occupied blocks per task id
system.cpu0.icache.tags.age_task_id_blocks_1024::3          123                       # Occupied blocks per task id
system.cpu0.icache.tags.occ_task_id_percent::1024     0.960938                       # Percentage of cache occupancy per task id
system.cpu0.icache.tags.tag_accesses          2142099                       # Number of tag accesses
system.cpu0.icache.tags.data_accesses         2142099                       # Number of data accesses
system.cpu0.icache.pwrStateResidencyTicks::UNDEFINED 23749795425342                       # Cumulative time (in ticks) in various power states
system.cpu0.icache.ReadReq_hits::cpu0.inst            6                       # number of ReadReq hits
system.cpu0.icache.ReadReq_hits::switch_cpus0.inst       267618                       # number of ReadReq hits
system.cpu0.icache.ReadReq_hits::total         267624                       # number of ReadReq hits
system.cpu0.icache.demand_hits::cpu0.inst            6                       # number of demand (read+write) hits
system.cpu0.icache.demand_hits::switch_cpus0.inst       267618                       # number of demand (read+write) hits
system.cpu0.icache.demand_hits::total          267624                       # number of demand (read+write) hits
system.cpu0.icache.overall_hits::cpu0.inst            6                       # number of overall hits
system.cpu0.icache.overall_hits::switch_cpus0.inst       267618                       # number of overall hits
system.cpu0.icache.overall_hits::total         267624                       # number of overall hits
system.cpu0.icache.ReadReq_misses::cpu0.inst            1                       # number of ReadReq misses
system.cpu0.icache.ReadReq_misses::switch_cpus0.inst          122                       # number of ReadReq misses
system.cpu0.icache.ReadReq_misses::total          123                       # number of ReadReq misses
system.cpu0.icache.demand_misses::cpu0.inst            1                       # number of demand (read+write) misses
system.cpu0.icache.demand_misses::switch_cpus0.inst          122                       # number of demand (read+write) misses
system.cpu0.icache.demand_misses::total           123                       # number of demand (read+write) misses
system.cpu0.icache.overall_misses::cpu0.inst            1                       # number of overall misses
system.cpu0.icache.overall_misses::switch_cpus0.inst          122                       # number of overall misses
system.cpu0.icache.overall_misses::total          123                       # number of overall misses
system.cpu0.icache.ReadReq_miss_latency::switch_cpus0.inst     15749531                       # number of ReadReq miss cycles
system.cpu0.icache.ReadReq_miss_latency::total     15749531                       # number of ReadReq miss cycles
system.cpu0.icache.demand_miss_latency::switch_cpus0.inst     15749531                       # number of demand (read+write) miss cycles
system.cpu0.icache.demand_miss_latency::total     15749531                       # number of demand (read+write) miss cycles
system.cpu0.icache.overall_miss_latency::switch_cpus0.inst     15749531                       # number of overall miss cycles
system.cpu0.icache.overall_miss_latency::total     15749531                       # number of overall miss cycles
system.cpu0.icache.ReadReq_accesses::cpu0.inst            7                       # number of ReadReq accesses(hits+misses)
system.cpu0.icache.ReadReq_accesses::switch_cpus0.inst       267740                       # number of ReadReq accesses(hits+misses)
system.cpu0.icache.ReadReq_accesses::total       267747                       # number of ReadReq accesses(hits+misses)
system.cpu0.icache.demand_accesses::cpu0.inst            7                       # number of demand (read+write) accesses
system.cpu0.icache.demand_accesses::switch_cpus0.inst       267740                       # number of demand (read+write) accesses
system.cpu0.icache.demand_accesses::total       267747                       # number of demand (read+write) accesses
system.cpu0.icache.overall_accesses::cpu0.inst            7                       # number of overall (read+write) accesses
system.cpu0.icache.overall_accesses::switch_cpus0.inst       267740                       # number of overall (read+write) accesses
system.cpu0.icache.overall_accesses::total       267747                       # number of overall (read+write) accesses
system.cpu0.icache.ReadReq_miss_rate::cpu0.inst     0.142857                       # miss rate for ReadReq accesses
system.cpu0.icache.ReadReq_miss_rate::switch_cpus0.inst     0.000456                       # miss rate for ReadReq accesses
system.cpu0.icache.ReadReq_miss_rate::total     0.000459                       # miss rate for ReadReq accesses
system.cpu0.icache.demand_miss_rate::cpu0.inst     0.142857                       # miss rate for demand accesses
system.cpu0.icache.demand_miss_rate::switch_cpus0.inst     0.000456                       # miss rate for demand accesses
system.cpu0.icache.demand_miss_rate::total     0.000459                       # miss rate for demand accesses
system.cpu0.icache.overall_miss_rate::cpu0.inst     0.142857                       # miss rate for overall accesses
system.cpu0.icache.overall_miss_rate::switch_cpus0.inst     0.000456                       # miss rate for overall accesses
system.cpu0.icache.overall_miss_rate::total     0.000459                       # miss rate for overall accesses
system.cpu0.icache.ReadReq_avg_miss_latency::switch_cpus0.inst 129094.516393                       # average ReadReq miss latency
system.cpu0.icache.ReadReq_avg_miss_latency::total 128044.967480                       # average ReadReq miss latency
system.cpu0.icache.demand_avg_miss_latency::switch_cpus0.inst 129094.516393                       # average overall miss latency
system.cpu0.icache.demand_avg_miss_latency::total 128044.967480                       # average overall miss latency
system.cpu0.icache.overall_avg_miss_latency::switch_cpus0.inst 129094.516393                       # average overall miss latency
system.cpu0.icache.overall_avg_miss_latency::total 128044.967480                       # average overall miss latency
system.cpu0.icache.blocked_cycles::no_mshrs            0                       # number of cycles access was blocked
system.cpu0.icache.blocked_cycles::no_targets            0                       # number of cycles access was blocked
system.cpu0.icache.blocked::no_mshrs                0                       # number of cycles access was blocked
system.cpu0.icache.blocked::no_targets              0                       # number of cycles access was blocked
system.cpu0.icache.avg_blocked_cycles::no_mshrs          nan                       # average number of cycles each access was blocked
system.cpu0.icache.avg_blocked_cycles::no_targets          nan                       # average number of cycles each access was blocked
system.cpu0.icache.ReadReq_mshr_misses::switch_cpus0.inst          122                       # number of ReadReq MSHR misses
system.cpu0.icache.ReadReq_mshr_misses::total          122                       # number of ReadReq MSHR misses
system.cpu0.icache.demand_mshr_misses::switch_cpus0.inst          122                       # number of demand (read+write) MSHR misses
system.cpu0.icache.demand_mshr_misses::total          122                       # number of demand (read+write) MSHR misses
system.cpu0.icache.overall_mshr_misses::switch_cpus0.inst          122                       # number of overall MSHR misses
system.cpu0.icache.overall_mshr_misses::total          122                       # number of overall MSHR misses
system.cpu0.icache.ReadReq_mshr_miss_latency::switch_cpus0.inst     15546279                       # number of ReadReq MSHR miss cycles
system.cpu0.icache.ReadReq_mshr_miss_latency::total     15546279                       # number of ReadReq MSHR miss cycles
system.cpu0.icache.demand_mshr_miss_latency::switch_cpus0.inst     15546279                       # number of demand (read+write) MSHR miss cycles
system.cpu0.icache.demand_mshr_miss_latency::total     15546279                       # number of demand (read+write) MSHR miss cycles
system.cpu0.icache.overall_mshr_miss_latency::switch_cpus0.inst     15546279                       # number of overall MSHR miss cycles
system.cpu0.icache.overall_mshr_miss_latency::total     15546279                       # number of overall MSHR miss cycles
system.cpu0.icache.ReadReq_mshr_miss_rate::switch_cpus0.inst     0.000456                       # mshr miss rate for ReadReq accesses
system.cpu0.icache.ReadReq_mshr_miss_rate::total     0.000456                       # mshr miss rate for ReadReq accesses
system.cpu0.icache.demand_mshr_miss_rate::switch_cpus0.inst     0.000456                       # mshr miss rate for demand accesses
system.cpu0.icache.demand_mshr_miss_rate::total     0.000456                       # mshr miss rate for demand accesses
system.cpu0.icache.overall_mshr_miss_rate::switch_cpus0.inst     0.000456                       # mshr miss rate for overall accesses
system.cpu0.icache.overall_mshr_miss_rate::total     0.000456                       # mshr miss rate for overall accesses
system.cpu0.icache.ReadReq_avg_mshr_miss_latency::switch_cpus0.inst 127428.516393                       # average ReadReq mshr miss latency
system.cpu0.icache.ReadReq_avg_mshr_miss_latency::total 127428.516393                       # average ReadReq mshr miss latency
system.cpu0.icache.demand_avg_mshr_miss_latency::switch_cpus0.inst 127428.516393                       # average overall mshr miss latency
[...]
system.switch_cpus2.op_class_0::SimdCvt             0      0.00%     69.57% # Class of committed instruction
system.switch_cpus2.op_class_0::SimdMisc            0      0.00%     69.57% # Class of committed instruction
system.switch_cpus2.op_class_0::SimdMult            0      0.00%     69.57% # Class of committed instruction
system.switch_cpus2.op_class_0::SimdMultAcc            0      0.00%     69.57% # Class of committed instruction
system.switch_cpus2.op_class_0::SimdShift            0      0.00%     69.57% # Class of committed instruction
system.switch_cpus2.op_class_0::SimdShiftAcc            0      0.00%     69.57% # Class of committed instruction
system.switch_cpus2.op_class_0::SimdSqrt            0      0.00%     69.57% # Class of committed instruction
system.switch_cpus2.op_class_0::SimdFloatAdd            0      0.00%     69.57% # Class of committed instruction
system.switch_cpus2.op_class_0::SimdFloatAlu            0      0.00%     69.57% # Class of committed instruction
system.switch_cpus2.op_class_0::SimdFloatCmp            0      0.00%     69.57% # Class of committed instruction
system.switch_cpus2.op_class_0::SimdFloatCvt            0      0.00%     69.57% # Class of committed instruction
system.switch_cpus2.op_class_0::SimdFloatDiv            0      0.00%     69.57% # Class of committed instruction
system.switch_cpus2.op_class_0::SimdFloatMisc            0      0.00%     69.57% # Class of committed instruction
system.switch_cpus2.op_class_0::SimdFloatMult            0      0.00%     69.57% # Class of committed instruction
system.switch_cpus2.op_class_0::SimdFloatMultAcc            0      0.00%     69.57% # Class of committed instruction
system.switch_cpus2.op_class_0::SimdFloatSqrt            0      0.00%     69.57% # Class of committed instruction
system.switch_cpus2.op_class_0::MemRead       4448602      3.07%     72.64% # Class of committed instruction
system.switch_cpus2.op_class_0::MemWrite       665545      0.46%     73.10% # Class of committed instruction
system.switch_cpus2.op_class_0::FloatMemRead     28866467     19.91%     93.00% # Class of committed instruction
system.switch_cpus2.op_class_0::FloatMemWrite     10143805      7.00%    100.00% # Class of committed instruction
system.switch_cpus2.op_class_0::IprAccess            0      0.00%    100.00% # Class of committed instruction
system.switch_cpus2.op_class_0::InstPrefetch            0      0.00%    100.00% # Class of committed instruction
system.switch_cpus2.op_class_0::total       144994454                       # Class of committed instruction
system.switch_cpus2.tickCycles              307225641                       # Number of cycles that the object actually ticked
system.switch_cpus2.idleCycles              348946310                       # Total number of cycles that the object has spent stopped
system.switch_cpus3.branchPred.lookups              0                       # Number of BP lookups
system.switch_cpus3.branchPred.condPredicted            0                       # Number of conditional branches predicted
system.switch_cpus3.branchPred.condIncorrect            0                       # Number of conditional branches incorrect
system.switch_cpus3.branchPred.BTBLookups            0                       # Number of BTB lookups
system.switch_cpus3.branchPred.BTBHits              0                       # Number of BTB hits
system.switch_cpus3.branchPred.BTBCorrect            0                       # Number of correct BTB predictions (this stat may not work properly.
system.switch_cpus3.branchPred.BTBHitPct          nan                       # BTB Hit Percentage
system.switch_cpus3.branchPred.usedRAS              0                       # Number of times the RAS was used to get a target.
system.switch_cpus3.branchPred.RASInCorrect            0                       # Number of incorrect RAS predictions.
system.switch_cpus3.branchPred.indirectLookups            0                       # Number of indirect predictor lookups.
system.switch_cpus3.branchPred.indirectHits            0                       # Number of indirect target hits.
system.switch_cpus3.branchPred.indirectMisses            0                       # Number of indirect misses.
system.switch_cpus3.branchPredindirectMispredicted            0                       # Number of mispredicted indirect branches.
system.switch_cpus3.dtb.walker.pwrStateResidencyTicks::UNDEFINED 546591238515                       # Cumulative time (in ticks) in various power states
system.switch_cpus3.itb.walker.pwrStateResidencyTicks::UNDEFINED 546591238515                       # Cumulative time (in ticks) in various power states
system.switch_cpus3.pwrStateResidencyTicks::ON 546591238515                       # Cumulative time (in ticks) in various power states
system.switch_cpus3.numCycles               656171953                       # number of cpu cycles simulated
system.switch_cpus3.numWorkItemsStarted             0                       # number of work items this cpu started
system.switch_cpus3.numWorkItemsCompleted            0                       # number of work items this cpu completed
system.switch_cpus3.committedInsts          100822417                       # Number of instructions committed
system.switch_cpus3.committedOps            146233274                       # Number of ops (including micro ops) committed
system.switch_cpus3.discardedOps             32967320                       # Number of ops (including micro ops) which were discarded before commit
system.switch_cpus3.numFetchSuspends                0                       # Number of times Execute suspended instruction fetching
system.switch_cpus3.cpi                      6.508195                       # CPI: cycles per instruction
system.switch_cpus3.ipc                      0.153652                       # IPC: instructions per cycle
system.switch_cpus3.op_class_0::No_OpClass        87172      0.06%      0.06% # Class of committed instruction
system.switch_cpus3.op_class_0::IntAlu       62315199     42.61%     42.67% # Class of committed instruction
system.switch_cpus3.op_class_0::IntMult         25686      0.02%     42.69% # Class of committed instruction
system.switch_cpus3.op_class_0::IntDiv           8800      0.01%     42.70% # Class of committed instruction
system.switch_cpus3.op_class_0::FloatAdd     39268447     26.85%     69.55% # Class of committed instruction
system.switch_cpus3.op_class_0::FloatCmp            0      0.00%     69.55% # Class of committed instruction
system.switch_cpus3.op_class_0::FloatCvt            0      0.00%     69.55% # Class of committed instruction
system.switch_cpus3.op_class_0::FloatMult            0      0.00%     69.55% # Class of committed instruction
system.switch_cpus3.op_class_0::FloatMultAcc            0      0.00%     69.55% # Class of committed instruction
system.switch_cpus3.op_class_0::FloatDiv            0      0.00%     69.55% # Class of committed instruction
system.switch_cpus3.op_class_0::FloatMisc            0      0.00%     69.55% # Class of committed instruction
system.switch_cpus3.op_class_0::FloatSqrt            0      0.00%     69.55% # Class of committed instruction
system.switch_cpus3.op_class_0::SimdAdd             0      0.00%     69.55% # Class of committed instruction
system.switch_cpus3.op_class_0::SimdAddAcc            0      0.00%     69.55% # Class of committed instruction
system.switch_cpus3.op_class_0::SimdAlu             0      0.00%     69.55% # Class of committed instruction
system.switch_cpus3.op_class_0::SimdCmp             0      0.00%     69.55% # Class of committed instruction
system.switch_cpus3.op_class_0::SimdCvt             0      0.00%     69.55% # Class of committed instruction
system.switch_cpus3.op_class_0::SimdMisc            0      0.00%     69.55% # Class of committed instruction
system.switch_cpus3.op_class_0::SimdMult            0      0.00%     69.55% # Class of committed instruction
system.switch_cpus3.op_class_0::SimdMultAcc            0      0.00%     69.55% # Class of committed instruction
system.switch_cpus3.op_class_0::SimdShift            0      0.00%     69.55% # Class of committed instruction
system.switch_cpus3.op_class_0::SimdShiftAcc            0      0.00%     69.55% # Class of committed instruction
system.switch_cpus3.op_class_0::SimdSqrt            0      0.00%     69.55% # Class of committed instruction
system.switch_cpus3.op_class_0::SimdFloatAdd            0      0.00%     69.55% # Class of committed instruction
system.switch_cpus3.op_class_0::SimdFloatAlu            0      0.00%     69.55% # Class of committed instruction
system.switch_cpus3.op_class_0::SimdFloatCmp            0      0.00%     69.55% # Class of committed instruction
system.switch_cpus3.op_class_0::SimdFloatCvt            0      0.00%     69.55% # Class of committed instruction
system.switch_cpus3.op_class_0::SimdFloatDiv            0      0.00%     69.55% # Class of committed instruction
system.switch_cpus3.op_class_0::SimdFloatMisc            0      0.00%     69.55% # Class of committed instruction
system.switch_cpus3.op_class_0::SimdFloatMult            0      0.00%     69.55% # Class of committed instruction
system.switch_cpus3.op_class_0::SimdFloatMultAcc            0      0.00%     69.55% # Class of committed instruction
system.switch_cpus3.op_class_0::SimdFloatSqrt            0      0.00%     69.55% # Class of committed instruction
system.switch_cpus3.op_class_0::MemRead       4507703      3.08%     72.63% # Class of committed instruction
system.switch_cpus3.op_class_0::MemWrite       671532      0.46%     73.09% # Class of committed instruction
system.switch_cpus3.op_class_0::FloatMemRead     29127711     19.92%     93.01% # Class of committed instruction
system.switch_cpus3.op_class_0::FloatMemWrite     10221024      6.99%    100.00% # Class of committed instruction
system.switch_cpus3.op_class_0::IprAccess            0      0.00%    100.00% # Class of committed instruction
system.switch_cpus3.op_class_0::InstPrefetch            0      0.00%    100.00% # Class of committed instruction
system.switch_cpus3.op_class_0::total       146233274                       # Class of committed instruction
system.switch_cpus3.tickCycles              309709193                       # Number of cycles that the object actually ticked
system.switch_cpus3.idleCycles              346462760                       # Total number of cycles that the object has spent stopped
system.tol2bus.snoop_filter.tot_requests     35823243                       # Total number of requests made to the snoop filter.
system.tol2bus.snoop_filter.hit_single_requests     17911612                       # Number of requests hitting in the snoop filter with a single holder of the requested data.
system.tol2bus.snoop_filter.hit_multi_requests            0                       # Number of requests hitting in the snoop filter with multiple (>1) holders of the requested data.
system.tol2bus.snoop_filter.tot_snoops          27742                       # Total number of snoops made to the snoop filter.
system.tol2bus.snoop_filter.hit_single_snoops        27742                       # Number of snoops hitting in the snoop filter with a single holder of the requested data.
system.tol2bus.snoop_filter.hit_multi_snoops            0                       # Number of snoops hitting in the snoop filter with multiple (>1) holders of the requested data.
system.tol2bus.pwrStateResidencyTicks::UNDEFINED 546591238515                       # Cumulative time (in ticks) in various power states
system.tol2bus.trans_dist::ReadResp          13165595                       # Transaction distribution
system.tol2bus.trans_dist::WritebackDirty     10639127                       # Transaction distribution
system.tol2bus.trans_dist::WritebackClean        38957                       # Transaction distribution
system.tol2bus.trans_dist::CleanEvict        18027962                       # Transaction distribution
system.tol2bus.trans_dist::ReadExReq          4746037                       # Transaction distribution
system.tol2bus.trans_dist::ReadExResp         4746037                       # Transaction distribution
system.tol2bus.trans_dist::ReadCleanReq         38977                       # Transaction distribution
system.tol2bus.trans_dist::ReadSharedReq     13126617                       # Transaction distribution
system.tol2bus.pkt_count_system.cpu0.icache.mem_side::system.l2.cpu_side        29227                       # Packet count per connected master and slave (bytes)
system.tol2bus.pkt_count_system.cpu0.dcache.mem_side::system.l2.cpu_side     13363905                       # Packet count per connected master and slave (bytes)
system.tol2bus.pkt_count_system.cpu1.icache.mem_side::system.l2.cpu_side        29224                       # Packet count per connected master and slave (bytes)
system.tol2bus.pkt_count_system.cpu1.dcache.mem_side::system.l2.cpu_side     13401841                       # Packet count per connected master and slave (bytes)
system.tol2bus.pkt_count_system.cpu2.icache.mem_side::system.l2.cpu_side        29230                       # Packet count per connected master and slave (bytes)
system.tol2bus.pkt_count_system.cpu2.dcache.mem_side::system.l2.cpu_side     13358500                       # Packet count per connected master and slave (bytes)
system.tol2bus.pkt_count_system.cpu3.icache.mem_side::system.l2.cpu_side        29230                       # Packet count per connected master and slave (bytes)
system.tol2bus.pkt_count_system.cpu3.dcache.mem_side::system.l2.cpu_side     13493718                       # Packet count per connected master and slave (bytes)
system.tol2bus.pkt_count::total              53734875                       # Packet count per connected master and slave (bytes)
system.tol2bus.pkt_size_system.cpu0.icache.mem_side::system.l2.cpu_side      1246912                       # Cumulative packet size per connected master and slave (bytes)
system.tol2bus.pkt_size_system.cpu0.dcache.mem_side::system.l2.cpu_side    396670208                       # Cumulative packet size per connected master and slave (bytes)
system.tol2bus.pkt_size_system.cpu1.icache.mem_side::system.l2.cpu_side      1246784                       # Cumulative packet size per connected master and slave (bytes)
system.tol2bus.pkt_size_system.cpu1.dcache.mem_side::system.l2.cpu_side    397868928                       # Cumulative packet size per connected master and slave (bytes)
system.tol2bus.pkt_size_system.cpu2.icache.mem_side::system.l2.cpu_side      1247040                       # Cumulative packet size per connected master and slave (bytes)
system.tol2bus.pkt_size_system.cpu2.dcache.mem_side::system.l2.cpu_side    396475904                       # Cumulative packet size per connected master and slave (bytes)
system.tol2bus.pkt_size_system.cpu3.icache.mem_side::system.l2.cpu_side      1247040                       # Cumulative packet size per connected master and slave (bytes)
system.tol2bus.pkt_size_system.cpu3.dcache.mem_side::system.l2.cpu_side    401069312                       # Cumulative packet size per connected master and slave (bytes)
system.tol2bus.pkt_size::total             1597072128                       # Cumulative packet size per connected master and slave (bytes)
system.tol2bus.snoops                        10794434                       # Total snoops (count)
system.tol2bus.snoopTraffic                 232669696                       # Total snoop traffic (bytes)
system.tol2bus.snoop_fanout::samples         28706065                       # Request fanout histogram
system.tol2bus.snoop_fanout::mean            0.000966                       # Request fanout histogram
system.tol2bus.snoop_fanout::stdev           0.031072                       # Request fanout histogram
system.tol2bus.snoop_fanout::underflows             0      0.00%      0.00% # Request fanout histogram
system.tol2bus.snoop_fanout::0               28678323     99.90%     99.90% # Request fanout histogram
system.tol2bus.snoop_fanout::1                  27742      0.10%    100.00% # Request fanout histogram
system.tol2bus.snoop_fanout::2                      0      0.00%    100.00% # Request fanout histogram
system.tol2bus.snoop_fanout::3                      0      0.00%    100.00% # Request fanout histogram
system.tol2bus.snoop_fanout::4                      0      0.00%    100.00% # Request fanout histogram
system.tol2bus.snoop_fanout::5                      0      0.00%    100.00% # Request fanout histogram
system.tol2bus.snoop_fanout::6                      0      0.00%    100.00% # Request fanout histogram
system.tol2bus.snoop_fanout::7                      0      0.00%    100.00% # Request fanout histogram
system.tol2bus.snoop_fanout::8                      0      0.00%    100.00% # Request fanout histogram
system.tol2bus.snoop_fanout::9                      0      0.00%    100.00% # Request fanout histogram
system.tol2bus.snoop_fanout::10                     0      0.00%    100.00% # Request fanout histogram
system.tol2bus.snoop_fanout::11                     0      0.00%    100.00% # Request fanout histogram
system.tol2bus.snoop_fanout::12                     0      0.00%    100.00% # Request fanout histogram
system.tol2bus.snoop_fanout::13                     0      0.00%    100.00% # Request fanout histogram
system.tol2bus.snoop_fanout::14                     0      0.00%    100.00% # Request fanout histogram
system.tol2bus.snoop_fanout::15                     0      0.00%    100.00% # Request fanout histogram
system.tol2bus.snoop_fanout::16                     0      0.00%    100.00% # Request fanout histogram
system.tol2bus.snoop_fanout::overflows              0      0.00%    100.00% # Request fanout histogram
system.tol2bus.snoop_fanout::min_value              0                       # Request fanout histogram
system.tol2bus.snoop_fanout::max_value              1                       # Request fanout histogram
system.tol2bus.snoop_fanout::total           28706065                       # Request fanout histogram
system.tol2bus.reqLayer0.occupancy        41573766339                       # Layer occupancy (ticks)
system.tol2bus.reqLayer0.utilization              7.6                       # Layer utilization (%)
system.tol2bus.respLayer0.occupancy          24410992                       # Layer occupancy (ticks)
system.tol2bus.respLayer0.utilization             0.0                       # Layer utilization (%)
system.tol2bus.respLayer1.occupancy       11146517292                       # Layer occupancy (ticks)
system.tol2bus.respLayer1.utilization             2.0                       # Layer utilization (%)
system.tol2bus.respLayer4.occupancy          24392685                       # Layer occupancy (ticks)
system.tol2bus.respLayer4.utilization             0.0                       # Layer utilization (%)
system.tol2bus.respLayer5.occupancy       11177790173                       # Layer occupancy (ticks)
system.tol2bus.respLayer5.utilization             2.0                       # Layer utilization (%)
system.tol2bus.respLayer8.occupancy          24398515                       # Layer occupancy (ticks)
system.tol2bus.respLayer8.utilization             0.0                       # Layer utilization (%)
system.tol2bus.respLayer9.occupancy       11141928400                       # Layer occupancy (ticks)
system.tol2bus.respLayer9.utilization             2.0                       # Layer utilization (%)
system.tol2bus.respLayer12.occupancy         24396019                       # Layer occupancy (ticks)
system.tol2bus.respLayer12.utilization            0.0                       # Layer utilization (%)
system.tol2bus.respLayer13.occupancy      11254094075                       # Layer occupancy (ticks)
system.tol2bus.respLayer13.utilization            2.1                       # Layer utilization (%)

---------- End Simulation Statistics   ----------
