gem5 Simulator System.  http://gem5.org
gem5 is copyrighted software; use the --copyright option for details.

gem5 compiled Nov 23 2016 21:20:46
gem5 started Nov 24 2016 00:54:38
gem5 executing on supreme.cerc.utexas.edu, pid 15906
command line: build/X86/gem5.fast -r --outdir=output/singleCore/leslie3d configs/example/singleCore.py --cpu-type=detailed --caches --l2cache --cmd=../../../rrip/cpu2006/benchspec/CPU2006/437.leslie3d/exe/leslie3d_base.amd64-m64-gcc42-nn --input=../../../rrip/cpu2006/benchspec/CPU2006/437.leslie3d/data/test/input/leslie3d.in --output=output/singleCore/leslie3d/leslie3d.stdout

Global frequency set at 1000000000000 ticks per second
warn: DRAM device capacity (8192 Mbytes) does not match the address range assigned (512 Mbytes)
0: system.remote_gdb.listener: listening for remote gdb on port 7008
warn: ClockedObject: More than one power state change request encountered within the same simulation tick
**** REAL SIMULATION ****
info: Entering event queue @ 0.  Starting simulation...
warn: instruction 'fwait' unimplemented
warn: instruction 'fnclex' unimplemented
info: Increasing stack size by one page.
warn: readlink() called on '/proc/self/exe' may yield unexpected results in various settings.
      Returning '/home/local/big/rrip/cpu2006/benchspec/CPU2006/437.leslie3d/exe/leslie3d_base.amd64-m64-gcc42-nn'
warn: ignoring syscall rt_sigaction(3, ...)
      (further warnings will be suppressed)
info: Increasing stack size by one page.
