
---------- Begin Simulation Statistics ----------
sim_seconds                                  0.002204                       # Number of seconds simulated
sim_ticks                                  2204373400                       # Number of ticks simulated
final_tick                               2537299200400                       # Number of ticks from beginning of simulation (restored from checkpoints and never reset)
sim_freq                                 1000000000000                       # Frequency of simulated ticks
host_inst_rate                                  91081                       # Simulator instruction rate (inst/s)
host_op_rate                                   110593                       # Simulator op (including micro ops) rate (op/s)
host_tick_rate                              200773043                       # Simulator tick rate (ticks/s)
host_mem_usage                                1476568                       # Number of bytes of host memory used
host_seconds                                    10.98                       # Real time elapsed on the host
sim_insts                                     1000014                       # Number of instructions simulated
sim_ops                                       1214251                       # Number of ops (including micro ops) simulated
system.voltage_domain.voltage                       1                       # Voltage in Volts
system.clk_domain.clock                          1000                       # Clock period in ticks
system.mem_ctrls.pwrStateResidencyTicks::UNDEFINED 2537299200400                       # Cumulative time (in ticks) in various power states
system.mem_ctrls.bytes_read::cpu.inst             128                       # Number of bytes read from this memory
system.mem_ctrls.bytes_read::cpu.data              64                       # Number of bytes read from this memory
system.mem_ctrls.bytes_read::switch_cpus.inst         2112                       # Number of bytes read from this memory
system.mem_ctrls.bytes_read::switch_cpus.data      1909184                       # Number of bytes read from this memory
system.mem_ctrls.bytes_read::total            1911488                       # Number of bytes read from this memory
system.mem_ctrls.bytes_inst_read::cpu.inst          128                       # Number of instructions bytes read from this memory
system.mem_ctrls.bytes_inst_read::switch_cpus.inst         2112                       # Number of instructions bytes read from this memory
system.mem_ctrls.bytes_inst_read::total          2240                       # Number of instructions bytes read from this memory
system.mem_ctrls.bytes_written::writebacks       654912                       # Number of bytes written to this memory
system.mem_ctrls.bytes_written::total          654912                       # Number of bytes written to this memory
system.mem_ctrls.num_reads::cpu.inst                2                       # Number of read requests responded to by this memory
system.mem_ctrls.num_reads::cpu.data                1                       # Number of read requests responded to by this memory
system.mem_ctrls.num_reads::switch_cpus.inst           33                       # Number of read requests responded to by this memory
system.mem_ctrls.num_reads::switch_cpus.data        29831                       # Number of read requests responded to by this memory
system.mem_ctrls.num_reads::total               29867                       # Number of read requests responded to by this memory
system.mem_ctrls.num_writes::writebacks         10233                       # Number of write requests responded to by this memory
system.mem_ctrls.num_writes::total              10233                       # Number of write requests responded to by this memory
system.mem_ctrls.bw_read::cpu.inst              58066                       # Total read bandwidth from this memory (bytes/s)
system.mem_ctrls.bw_read::cpu.data              29033                       # Total read bandwidth from this memory (bytes/s)
system.mem_ctrls.bw_read::switch_cpus.inst       958095                       # Total read bandwidth from this memory (bytes/s)
system.mem_ctrls.bw_read::switch_cpus.data    866089202                       # Total read bandwidth from this memory (bytes/s)
system.mem_ctrls.bw_read::total             867134397                       # Total read bandwidth from this memory (bytes/s)
system.mem_ctrls.bw_inst_read::cpu.inst         58066                       # Instruction read bandwidth from this memory (bytes/s)
system.mem_ctrls.bw_inst_read::switch_cpus.inst       958095                       # Instruction read bandwidth from this memory (bytes/s)
system.mem_ctrls.bw_inst_read::total          1016162                       # Instruction read bandwidth from this memory (bytes/s)
system.mem_ctrls.bw_write::writebacks       297096672                       # Write bandwidth from this memory (bytes/s)
system.mem_ctrls.bw_write::total            297096672                       # Write bandwidth from this memory (bytes/s)
system.mem_ctrls.bw_total::writebacks       297096672                       # Total bandwidth to/from this memory (bytes/s)
system.mem_ctrls.bw_total::cpu.inst             58066                       # Total bandwidth to/from this memory (bytes/s)
system.mem_ctrls.bw_total::cpu.data             29033                       # Total bandwidth to/from this memory (bytes/s)
system.mem_ctrls.bw_total::switch_cpus.inst       958095                       # Total bandwidth to/from this memory (bytes/s)
system.mem_ctrls.bw_total::switch_cpus.data    866089202                       # Total bandwidth to/from this memory (bytes/s)
system.mem_ctrls.bw_total::total           1164231069                       # Total bandwidth to/from this memory (bytes/s)
system.mem_ctrls.readReqs                       29864                       # Number of read requests accepted
system.mem_ctrls.writeReqs                      10233                       # Number of write requests accepted
system.mem_ctrls.readBursts                     29864                       # Number of DRAM read bursts, including those serviced by the write queue
system.mem_ctrls.writeBursts                    10233                       # Number of DRAM write bursts, including those merged in the write queue
system.mem_ctrls.bytesReadDRAM                1911296                       # Total number of bytes read from DRAM
system.mem_ctrls.bytesReadWrQ                       0                       # Total number of bytes read from write queue
system.mem_ctrls.bytesWritten                  653696                       # Total number of bytes written to DRAM
system.mem_ctrls.bytesReadSys                 1911296                       # Total read bytes from the system interface side
system.mem_ctrls.bytesWrittenSys               654912                       # Total written bytes from the system interface side
system.mem_ctrls.servicedByWrQ                      0                       # Number of DRAM read bursts serviced by the write queue
system.mem_ctrls.mergedWrBursts                     0                       # Number of DRAM write bursts merged with an existing one
system.mem_ctrls.neitherReadNorWriteReqs            0                       # Number of requests that are neither read nor write
system.mem_ctrls.perBankRdBursts::0              1799                       # Per bank write bursts
system.mem_ctrls.perBankRdBursts::1              1749                       # Per bank write bursts
system.mem_ctrls.perBankRdBursts::2              1730                       # Per bank write bursts
system.mem_ctrls.perBankRdBursts::3              1798                       # Per bank write bursts
system.mem_ctrls.perBankRdBursts::4              1846                       # Per bank write bursts
system.mem_ctrls.perBankRdBursts::5              1894                       # Per bank write bursts
system.mem_ctrls.perBankRdBursts::6              1897                       # Per bank write bursts
system.mem_ctrls.perBankRdBursts::7              1920                       # Per bank write bursts
system.mem_ctrls.perBankRdBursts::8              1959                       # Per bank write bursts
system.mem_ctrls.perBankRdBursts::9              1971                       # Per bank write bursts
system.mem_ctrls.perBankRdBursts::10             2031                       # Per bank write bursts
system.mem_ctrls.perBankRdBursts::11             2012                       # Per bank write bursts
system.mem_ctrls.perBankRdBursts::12             1872                       # Per bank write bursts
system.mem_ctrls.perBankRdBursts::13             1836                       # Per bank write bursts
system.mem_ctrls.perBankRdBursts::14             1784                       # Per bank write bursts
system.mem_ctrls.perBankRdBursts::15             1766                       # Per bank write bursts
system.mem_ctrls.perBankWrBursts::0               614                       # Per bank write bursts
system.mem_ctrls.perBankWrBursts::1               589                       # Per bank write bursts
system.mem_ctrls.perBankWrBursts::2               555                       # Per bank write bursts
system.mem_ctrls.perBankWrBursts::3               517                       # Per bank write bursts
system.mem_ctrls.perBankWrBursts::4               565                       # Per bank write bursts
system.mem_ctrls.perBankWrBursts::5               614                       # Per bank write bursts
system.mem_ctrls.perBankWrBursts::6               617                       # Per bank write bursts
system.mem_ctrls.perBankWrBursts::7               640                       # Per bank write bursts
system.mem_ctrls.perBankWrBursts::8               677                       # Per bank write bursts
system.mem_ctrls.perBankWrBursts::9               691                       # Per bank write bursts
system.mem_ctrls.perBankWrBursts::10              751                       # Per bank write bursts
system.mem_ctrls.perBankWrBursts::11              753                       # Per bank write bursts
system.mem_ctrls.perBankWrBursts::12              702                       # Per bank write bursts
system.mem_ctrls.perBankWrBursts::13              684                       # Per bank write bursts
system.mem_ctrls.perBankWrBursts::14              631                       # Per bank write bursts
system.mem_ctrls.perBankWrBursts::15              614                       # Per bank write bursts
system.mem_ctrls.numRdRetry                         0                       # Number of times read queue was full causing retry
system.mem_ctrls.numWrRetry                         0                       # Number of times write queue was full causing retry
system.mem_ctrls.totGap                    2204306800                       # Total gap between requests
system.mem_ctrls.readPktSize::0                     0                       # Read request sizes (log2)
system.mem_ctrls.readPktSize::1                     0                       # Read request sizes (log2)
system.mem_ctrls.readPktSize::2                     0                       # Read request sizes (log2)
system.mem_ctrls.readPktSize::3                     0                       # Read request sizes (log2)
system.mem_ctrls.readPktSize::4                     0                       # Read request sizes (log2)
system.mem_ctrls.readPktSize::5                     0                       # Read request sizes (log2)
system.mem_ctrls.readPktSize::6                 29864                       # Read request sizes (log2)
system.mem_ctrls.writePktSize::0                    0                       # Write request sizes (log2)
system.mem_ctrls.writePktSize::1                    0                       # Write request sizes (log2)
system.mem_ctrls.writePktSize::2                    0                       # Write request sizes (log2)
system.mem_ctrls.writePktSize::3                    0                       # Write request sizes (log2)
system.mem_ctrls.writePktSize::4                    0                       # Write request sizes (log2)
system.mem_ctrls.writePktSize::5                    0                       # Write request sizes (log2)
system.mem_ctrls.writePktSize::6                10233                       # Write request sizes (log2)
system.mem_ctrls.rdQLenPdf::0                   22566                       # What read queue length does an incoming req see
system.mem_ctrls.rdQLenPdf::1                    3018                       # What read queue length does an incoming req see
system.mem_ctrls.rdQLenPdf::2                    2854                       # What read queue length does an incoming req see
system.mem_ctrls.rdQLenPdf::3                    1426                       # What read queue length does an incoming req see
system.mem_ctrls.rdQLenPdf::4                       0                       # What read queue length does an incoming req see
system.mem_ctrls.rdQLenPdf::5                       0                       # What read queue length does an incoming req see
system.mem_ctrls.rdQLenPdf::6                       0                       # What read queue length does an incoming req see
system.mem_ctrls.rdQLenPdf::7                       0                       # What read queue length does an incoming req see
system.mem_ctrls.rdQLenPdf::8                       0                       # What read queue length does an incoming req see
system.mem_ctrls.rdQLenPdf::9                       0                       # What read queue length does an incoming req see
system.mem_ctrls.rdQLenPdf::10                      0                       # What read queue length does an incoming req see
system.mem_ctrls.rdQLenPdf::11                      0                       # What read queue length does an incoming req see
system.mem_ctrls.rdQLenPdf::12                      0                       # What read queue length does an incoming req see
system.mem_ctrls.rdQLenPdf::13                      0                       # What read queue length does an incoming req see
system.mem_ctrls.rdQLenPdf::14                      0                       # What read queue length does an incoming req see
system.mem_ctrls.rdQLenPdf::15                      0                       # What read queue length does an incoming req see
system.mem_ctrls.rdQLenPdf::16                      0                       # What read queue length does an incoming req see
system.mem_ctrls.rdQLenPdf::17                      0                       # What read queue length does an incoming req see
system.mem_ctrls.rdQLenPdf::18                      0                       # What read queue length does an incoming req see
system.mem_ctrls.rdQLenPdf::19                      0                       # What read queue length does an incoming req see
system.mem_ctrls.rdQLenPdf::20                      0                       # What read queue length does an incoming req see
system.mem_ctrls.rdQLenPdf::21                      0                       # What read queue length does an incoming req see
system.mem_ctrls.rdQLenPdf::22                      0                       # What read queue length does an incoming req see
system.mem_ctrls.rdQLenPdf::23                      0                       # What read queue length does an incoming req see
system.mem_ctrls.rdQLenPdf::24                      0                       # What read queue length does an incoming req see
system.mem_ctrls.rdQLenPdf::25                      0                       # What read queue length does an incoming req see
system.mem_ctrls.rdQLenPdf::26                      0                       # What read queue length does an incoming req see
system.mem_ctrls.rdQLenPdf::27                      0                       # What read queue length does an incoming req see
system.mem_ctrls.rdQLenPdf::28                      0                       # What read queue length does an incoming req see
system.mem_ctrls.rdQLenPdf::29                      0                       # What read queue length does an incoming req see
system.mem_ctrls.rdQLenPdf::30                      0                       # What read queue length does an incoming req see
system.mem_ctrls.rdQLenPdf::31                      0                       # What read queue length does an incoming req see
system.mem_ctrls.wrQLenPdf::0                       1                       # What write queue length does an incoming req see
system.mem_ctrls.wrQLenPdf::1                       1                       # What write queue length does an incoming req see
system.mem_ctrls.wrQLenPdf::2                       1                       # What write queue length does an incoming req see
system.mem_ctrls.wrQLenPdf::3                       1                       # What write queue length does an incoming req see
system.mem_ctrls.wrQLenPdf::4                       1                       # What write queue length does an incoming req see
system.mem_ctrls.wrQLenPdf::5                       1                       # What write queue length does an incoming req see
system.mem_ctrls.wrQLenPdf::6                       1                       # What write queue length does an incoming req see
system.mem_ctrls.wrQLenPdf::7                       1                       # What write queue length does an incoming req see
system.mem_ctrls.wrQLenPdf::8                       1                       # What write queue length does an incoming req see
system.mem_ctrls.wrQLenPdf::9                       1                       # What write queue length does an incoming req see
system.mem_ctrls.wrQLenPdf::10                      1                       # What write queue length does an incoming req see
system.mem_ctrls.wrQLenPdf::11                      1                       # What write queue length does an incoming req see
system.mem_ctrls.wrQLenPdf::12                      1                       # What write queue length does an incoming req see
system.mem_ctrls.wrQLenPdf::13                      1                       # What write queue length does an incoming req see
system.mem_ctrls.wrQLenPdf::14                      1                       # What write queue length does an incoming req see
system.mem_ctrls.wrQLenPdf::15                      3                       # What write queue length does an incoming req see
system.mem_ctrls.wrQLenPdf::16                      4                       # What write queue length does an incoming req see
system.mem_ctrls.wrQLenPdf::17                    554                       # What write queue length does an incoming req see
system.mem_ctrls.wrQLenPdf::18                    639                       # What write queue length does an incoming req see
system.mem_ctrls.wrQLenPdf::19                    638                       # What write queue length does an incoming req see
system.mem_ctrls.wrQLenPdf::20                    638                       # What write queue length does an incoming req see
system.mem_ctrls.wrQLenPdf::21                    638                       # What write queue length does an incoming req see
system.mem_ctrls.wrQLenPdf::22                    638                       # What write queue length does an incoming req see
system.mem_ctrls.wrQLenPdf::23                    638                       # What write queue length does an incoming req see
system.mem_ctrls.wrQLenPdf::24                    638                       # What write queue length does an incoming req see
system.mem_ctrls.wrQLenPdf::25                    638                       # What write queue length does an incoming req see
system.mem_ctrls.wrQLenPdf::26                    639                       # What write queue length does an incoming req see
system.mem_ctrls.wrQLenPdf::27                    640                       # What write queue length does an incoming req see
system.mem_ctrls.wrQLenPdf::28                    638                       # What write queue length does an incoming req see
system.mem_ctrls.wrQLenPdf::29                    643                       # What write queue length does an incoming req see
system.mem_ctrls.wrQLenPdf::30                    643                       # What write queue length does an incoming req see
system.mem_ctrls.wrQLenPdf::31                    682                       # What write queue length does an incoming req see
system.mem_ctrls.wrQLenPdf::32                    667                       # What write queue length does an incoming req see
system.mem_ctrls.wrQLenPdf::33                      0                       # What write queue length does an incoming req see
system.mem_ctrls.wrQLenPdf::34                      0                       # What write queue length does an incoming req see
system.mem_ctrls.wrQLenPdf::35                      0                       # What write queue length does an incoming req see
system.mem_ctrls.wrQLenPdf::36                      0                       # What write queue length does an incoming req see
system.mem_ctrls.wrQLenPdf::37                      0                       # What write queue length does an incoming req see
system.mem_ctrls.wrQLenPdf::38                      0                       # What write queue length does an incoming req see
system.mem_ctrls.wrQLenPdf::39                      0                       # What write queue length does an incoming req see
system.mem_ctrls.wrQLenPdf::40                      0                       # What write queue length does an incoming req see
system.mem_ctrls.wrQLenPdf::41                      0                       # What write queue length does an incoming req see
system.mem_ctrls.wrQLenPdf::42                      0                       # What write queue length does an incoming req see
system.mem_ctrls.wrQLenPdf::43                      0                       # What write queue length does an incoming req see
system.mem_ctrls.wrQLenPdf::44                      0                       # What write queue length does an incoming req see
system.mem_ctrls.wrQLenPdf::45                      0                       # What write queue length does an incoming req see
system.mem_ctrls.wrQLenPdf::46                      0                       # What write queue length does an incoming req see
system.mem_ctrls.wrQLenPdf::47                      0                       # What write queue length does an incoming req see
system.mem_ctrls.wrQLenPdf::48                      0                       # What write queue length does an incoming req see
system.mem_ctrls.wrQLenPdf::49                      0                       # What write queue length does an incoming req see
system.mem_ctrls.wrQLenPdf::50                      0                       # What write queue length does an incoming req see
system.mem_ctrls.wrQLenPdf::51                      0                       # What write queue length does an incoming req see
system.mem_ctrls.wrQLenPdf::52                      0                       # What write queue length does an incoming req see
system.mem_ctrls.wrQLenPdf::53                      0                       # What write queue length does an incoming req see
system.mem_ctrls.wrQLenPdf::54                      0                       # What write queue length does an incoming req see
system.mem_ctrls.wrQLenPdf::55                      0                       # What write queue length does an incoming req see
system.mem_ctrls.wrQLenPdf::56                      0                       # What write queue length does an incoming req see
system.mem_ctrls.wrQLenPdf::57                      0                       # What write queue length does an incoming req see
system.mem_ctrls.wrQLenPdf::58                      0                       # What write queue length does an incoming req see
system.mem_ctrls.wrQLenPdf::59                      0                       # What write queue length does an incoming req see
system.mem_ctrls.wrQLenPdf::60                      0                       # What write queue length does an incoming req see
system.mem_ctrls.wrQLenPdf::61                      0                       # What write queue length does an incoming req see
system.mem_ctrls.wrQLenPdf::62                      0                       # What write queue length does an incoming req see
system.mem_ctrls.wrQLenPdf::63                      0                       # What write queue length does an incoming req see
system.mem_ctrls.bytesPerActivate::samples         8900                       # Bytes accessed per row activation
system.mem_ctrls.bytesPerActivate::mean    288.107865                       # Bytes accessed per row activation
system.mem_ctrls.bytesPerActivate::gmean   195.061471                       # Bytes accessed per row activation
system.mem_ctrls.bytesPerActivate::stdev   265.729895                       # Bytes accessed per row activation
system.mem_ctrls.bytesPerActivate::0-127         2251     25.29%     25.29% # Bytes accessed per row activation
system.mem_ctrls.bytesPerActivate::128-255         3015     33.88%     59.17% # Bytes accessed per row activation
system.mem_ctrls.bytesPerActivate::256-383         1016     11.42%     70.58% # Bytes accessed per row activation
system.mem_ctrls.bytesPerActivate::384-511          892     10.02%     80.61% # Bytes accessed per row activation
system.mem_ctrls.bytesPerActivate::512-639          498      5.60%     86.20% # Bytes accessed per row activation
system.mem_ctrls.bytesPerActivate::640-767          424      4.76%     90.97% # Bytes accessed per row activation
system.mem_ctrls.bytesPerActivate::768-895          260      2.92%     93.89% # Bytes accessed per row activation
system.mem_ctrls.bytesPerActivate::896-1023          137      1.54%     95.43% # Bytes accessed per row activation
system.mem_ctrls.bytesPerActivate::1024-1151          407      4.57%    100.00% # Bytes accessed per row activation
system.mem_ctrls.bytesPerActivate::total         8900                       # Bytes accessed per row activation
system.mem_ctrls.rdPerTurnAround::samples          638                       # Reads before turning the bus around for writes
system.mem_ctrls.rdPerTurnAround::mean      46.805643                       # Reads before turning the bus around for writes
system.mem_ctrls.rdPerTurnAround::gmean     22.291726                       # Reads before turning the bus around for writes
system.mem_ctrls.rdPerTurnAround::stdev    608.386442                       # Reads before turning the bus around for writes
system.mem_ctrls.rdPerTurnAround::0-511           637     99.84%     99.84% # Reads before turning the bus around for writes
system.mem_ctrls.rdPerTurnAround::15360-15871            1      0.16%    100.00% # Reads before turning the bus around for writes
system.mem_ctrls.rdPerTurnAround::total           638                       # Reads before turning the bus around for writes
system.mem_ctrls.wrPerTurnAround::samples          638                       # Writes before turning the bus around for reads
system.mem_ctrls.wrPerTurnAround::mean      16.009404                       # Writes before turning the bus around for reads
system.mem_ctrls.wrPerTurnAround::gmean     16.008786                       # Writes before turning the bus around for reads
system.mem_ctrls.wrPerTurnAround::stdev      0.147951                       # Writes before turning the bus around for reads
system.mem_ctrls.wrPerTurnAround::16              635     99.53%     99.53% # Writes before turning the bus around for reads
system.mem_ctrls.wrPerTurnAround::17                1      0.16%     99.69% # Writes before turning the bus around for reads
system.mem_ctrls.wrPerTurnAround::18                1      0.16%     99.84% # Writes before turning the bus around for reads
system.mem_ctrls.wrPerTurnAround::19                1      0.16%    100.00% # Writes before turning the bus around for reads
system.mem_ctrls.wrPerTurnAround::total           638                       # Writes before turning the bus around for reads
system.mem_ctrls.totQLat                    606737250                       # Total ticks spent queuing
system.mem_ctrls.totMemAccLat              1166687250                       # Total ticks spent from burst creation until serviced by the DRAM
system.mem_ctrls.totBusLat                  149320000                       # Total ticks spent in databus transfers
system.mem_ctrls.avgQLat                     20316.68                       # Average queueing delay per DRAM burst
system.mem_ctrls.avgBusLat                    5000.00                       # Average bus latency per DRAM burst
system.mem_ctrls.avgMemAccLat                39066.68                       # Average memory access latency per DRAM burst
system.mem_ctrls.avgRdBW                       867.05                       # Average DRAM read bandwidth in MiByte/s
system.mem_ctrls.avgWrBW                       296.55                       # Average achieved write bandwidth in MiByte/s
system.mem_ctrls.avgRdBWSys                    867.05                       # Average system read bandwidth in MiByte/s
system.mem_ctrls.avgWrBWSys                    297.10                       # Average system write bandwidth in MiByte/s
system.mem_ctrls.peakBW                      12800.00                       # Theoretical peak bandwidth in MiByte/s
system.mem_ctrls.busUtil                         9.09                       # Data bus utilization in percentage
system.mem_ctrls.busUtilRead                     6.77                       # Data bus utilization in percentage for reads
system.mem_ctrls.busUtilWrite                    2.32                       # Data bus utilization in percentage for writes
system.mem_ctrls.avgRdQLen                       1.39                       # Average read queue length when enqueuing
system.mem_ctrls.avgWrQLen                      13.21                       # Average write queue length when enqueuing
system.mem_ctrls.readRowHits                    22763                       # Number of row buffer hits during reads
system.mem_ctrls.writeRowHits                    8408                       # Number of row buffer hits during writes
system.mem_ctrls.readRowHitRate                 76.22                       # Row buffer hit rate for reads
system.mem_ctrls.writeRowHitRate                82.17                       # Row buffer hit rate for writes
system.mem_ctrls.avgGap                      54974.36                       # Average gap between requests
system.mem_ctrls.pageHitRate                    77.74                       # Row buffer hit rate, read and write combined
system.mem_ctrls_0.actEnergy                 30394980                       # Energy for activate commands per rank (pJ)
system.mem_ctrls_0.preEnergy                 16143930                       # Energy for precharge commands per rank (pJ)
system.mem_ctrls_0.readEnergy               104479620                       # Energy for read commands per rank (pJ)
system.mem_ctrls_0.writeEnergy               24591420                       # Energy for write commands per rank (pJ)
system.mem_ctrls_0.refreshEnergy         173943120.000000                       # Energy for refresh commands per rank (pJ)
system.mem_ctrls_0.actBackEnergy            249454800                       # Energy for active background per rank (pJ)
system.mem_ctrls_0.preBackEnergy              4300320                       # Energy for precharge background per rank (pJ)
system.mem_ctrls_0.actPowerDownEnergy       740476740                       # Energy for active power-down per rank (pJ)
system.mem_ctrls_0.prePowerDownEnergy         8548800                       # Energy for precharge power-down per rank (pJ)
system.mem_ctrls_0.selfRefreshEnergy                0                       # Energy for self refresh per rank (pJ)
system.mem_ctrls_0.totalEnergy             1352333730                       # Total energy per rank (pJ)
system.mem_ctrls_0.averagePower            613.480298                       # Core power per rank (mW)
system.mem_ctrls_0.totalIdleTime           1646100550                       # Total Idle time Per DRAM Rank
system.mem_ctrls_0.memoryStateTime::IDLE      1504200                       # Time in different power states
system.mem_ctrls_0.memoryStateTime::REF      73580000                       # Time in different power states
system.mem_ctrls_0.memoryStateTime::SREF            0                       # Time in different power states
system.mem_ctrls_0.memoryStateTime::PRE_PDN     22274350                       # Time in different power states
system.mem_ctrls_0.memoryStateTime::ACT     483039700                       # Time in different power states
system.mem_ctrls_0.memoryStateTime::ACT_PDN   1623965150                       # Time in different power states
system.mem_ctrls_1.actEnergy                 33201000                       # Energy for activate commands per rank (pJ)
system.mem_ctrls_1.preEnergy                 17631570                       # Energy for precharge commands per rank (pJ)
system.mem_ctrls_1.readEnergy               108749340                       # Energy for read commands per rank (pJ)
system.mem_ctrls_1.writeEnergy               28725660                       # Energy for write commands per rank (pJ)
system.mem_ctrls_1.refreshEnergy         173943120.000000                       # Energy for refresh commands per rank (pJ)
system.mem_ctrls_1.actBackEnergy            260503680                       # Energy for active background per rank (pJ)
system.mem_ctrls_1.preBackEnergy              4181280                       # Energy for precharge background per rank (pJ)
system.mem_ctrls_1.actPowerDownEnergy       731861190                       # Energy for active power-down per rank (pJ)
system.mem_ctrls_1.prePowerDownEnergy         6618720                       # Energy for precharge power-down per rank (pJ)
system.mem_ctrls_1.selfRefreshEnergy                0                       # Energy for self refresh per rank (pJ)
system.mem_ctrls_1.totalEnergy             1365415560                       # Total energy per rank (pJ)
system.mem_ctrls_1.averagePower            619.414813                       # Core power per rank (mW)
system.mem_ctrls_1.totalIdleTime           1622235700                       # Total Idle time Per DRAM Rank
system.mem_ctrls_1.memoryStateTime::IDLE      1688600                       # Time in different power states
system.mem_ctrls_1.memoryStateTime::REF      73580000                       # Time in different power states
system.mem_ctrls_1.memoryStateTime::SREF            0                       # Time in different power states
system.mem_ctrls_1.memoryStateTime::PRE_PDN     17247050                       # Time in different power states
system.mem_ctrls_1.memoryStateTime::ACT     506815750                       # Time in different power states
system.mem_ctrls_1.memoryStateTime::ACT_PDN   1605032000                       # Time in different power states
system.pwrStateResidencyTicks::UNDEFINED 2537299200400                       # Cumulative time (in ticks) in various power states
system.cpu_voltage_domain.voltage                   1                       # Voltage in Volts
system.cpu_clk_domain.clock                       400                       # Clock period in ticks
system.cpu.dtb.walker.pwrStateResidencyTicks::UNDEFINED 2537299200400                       # Cumulative time (in ticks) in various power states
system.cpu.apic_clk_domain.clock                 6400                       # Clock period in ticks
system.cpu.interrupts.pwrStateResidencyTicks::UNDEFINED 2537299200400                       # Cumulative time (in ticks) in various power states
system.cpu.itb.walker.pwrStateResidencyTicks::UNDEFINED 2537299200400                       # Cumulative time (in ticks) in various power states
system.cpu.workload.num_syscalls                    0                       # Number of system calls
system.cpu.pwrStateResidencyTicks::ON      2204373400                       # Cumulative time (in ticks) in various power states
system.cpu.numCycles                               24                       # number of cpu cycles simulated
system.cpu.numWorkItemsStarted                      0                       # number of work items this cpu started
system.cpu.numWorkItemsCompleted                    0                       # number of work items this cpu completed
system.cpu.committedInsts                          14                       # Number of instructions committed
system.cpu.committedOps                            16                       # Number of ops (including micro ops) committed
system.cpu.num_int_alu_accesses                     2                       # Number of integer alu accesses
system.cpu.num_fp_alu_accesses                     16                       # Number of float alu accesses
system.cpu.num_func_calls                           0                       # number of times a function call or return occured
system.cpu.num_conditional_control_insts            0                       # number of instructions that are conditional controls
system.cpu.num_int_insts                            2                       # number of integer instructions
system.cpu.num_fp_insts                            16                       # number of float instructions
system.cpu.num_int_register_reads                   6                       # number of times the integer registers were read
system.cpu.num_int_register_writes                  0                       # number of times the integer registers were written
system.cpu.num_fp_register_reads                   40                       # number of times the floating registers were read
system.cpu.num_fp_register_writes                  14                       # number of times the floating registers were written
system.cpu.num_mem_refs                             2                       # number of memory refs
system.cpu.num_load_insts                           0                       # Number of load instructions
system.cpu.num_store_insts                          2                       # Number of store instructions
system.cpu.num_idle_cycles                          0                       # Number of idle cycles
system.cpu.num_busy_cycles                         24                       # Number of busy cycles
system.cpu.not_idle_fraction                        1                       # Percentage of non-idle cycles
system.cpu.idle_fraction                            0                       # Percentage of idle cycles
system.cpu.op_class::No_OpClass                     0      0.00%      0.00% # Class of executed instruction
system.cpu.op_class::IntAlu                         4     25.00%     25.00% # Class of executed instruction
system.cpu.op_class::IntMult                        0      0.00%     25.00% # Class of executed instruction
system.cpu.op_class::IntDiv                         0      0.00%     25.00% # Class of executed instruction
system.cpu.op_class::FloatAdd                      10     62.50%     87.50% # Class of executed instruction
system.cpu.op_class::FloatCmp                       0      0.00%     87.50% # Class of executed instruction
system.cpu.op_class::FloatCvt                       0      0.00%     87.50% # Class of executed instruction
system.cpu.op_class::FloatMult                      0      0.00%     87.50% # Class of executed instruction
system.cpu.op_class::FloatMultAcc                   0      0.00%     87.50% # Class of executed instruction
system.cpu.op_class::FloatDiv                       0      0.00%     87.50% # Class of executed instruction
system.cpu.op_class::FloatMisc                      0      0.00%     87.50% # Class of executed instruction
system.cpu.op_class::FloatSqrt                      0      0.00%     87.50% # Class of executed instruction
system.cpu.op_class::SimdAdd                        0      0.00%     87.50% # Class of executed instruction
system.cpu.op_class::SimdAddAcc                     0      0.00%     87.50% # Class of executed instruction
system.cpu.op_class::SimdAlu                        0      0.00%     87.50% # Class of executed instruction
system.cpu.op_class::SimdCmp                        0      0.00%     87.50% # Class of executed instruction
system.cpu.op_class::SimdCvt                        0      0.00%     87.50% # Class of executed instruction
system.cpu.op_class::SimdMisc                       0      0.00%     87.50% # Class of executed instruction
system.cpu.op_class::SimdMult                       0      0.00%     87.50% # Class of executed instruction
system.cpu.op_class::SimdMultAcc                    0      0.00%     87.50% # Class of executed instruction
system.cpu.op_class::SimdShift                      0      0.00%     87.50% # Class of executed instruction
system.cpu.op_class::SimdShiftAcc                   0      0.00%     87.50% # Class of executed instruction
system.cpu.op_class::SimdSqrt                       0      0.00%     87.50% # Class of executed instruction
system.cpu.op_class::SimdFloatAdd                   0      0.00%     87.50% # Class of executed instruction
system.cpu.op_class::SimdFloatAlu                   0      0.00%     87.50% # Class of executed instruction
system.cpu.op_class::SimdFloatCmp                   0      0.00%     87.50% # Class of executed instruction
system.cpu.op_class::SimdFloatCvt                   0      0.00%     87.50% # Class of executed instruction
system.cpu.op_class::SimdFloatDiv                   0      0.00%     87.50% # Class of executed instruction
system.cpu.op_class::SimdFloatMisc                  0      0.00%     87.50% # Class of executed instruction
system.cpu.op_class::SimdFloatMult                  0      0.00%     87.50% # Class of executed instruction
system.cpu.op_class::SimdFloatMultAcc               0      0.00%     87.50% # Class of executed instruction
system.cpu.op_class::SimdFloatSqrt                  0      0.00%     87.50% # Class of executed instruction
system.cpu.op_class::MemRead                        0      0.00%     87.50% # Class of executed instruction
system.cpu.op_class::MemWrite                       0      0.00%     87.50% # Class of executed instruction
system.cpu.op_class::FloatMemRead                   0      0.00%     87.50% # Class of executed instruction
system.cpu.op_class::FloatMemWrite                  2     12.50%    100.00% # Class of executed instruction
system.cpu.op_class::IprAccess                      0      0.00%    100.00% # Class of executed instruction
system.cpu.op_class::InstPrefetch                   0      0.00%    100.00% # Class of executed instruction
system.cpu.op_class::total                         16                       # Class of executed instruction
system.cpu.dcache.tags.pwrStateResidencyTicks::UNDEFINED 2537299200400                       # Cumulative time (in ticks) in various power states
system.cpu.dcache.tags.replacements             47470                       # number of replacements
system.cpu.dcache.tags.tagsinuse           507.477647                       # Cycle average of tags in use
system.cpu.dcache.tags.total_refs               77634                       # Total number of references to valid blocks.
system.cpu.dcache.tags.sampled_refs             47470                       # Sample count of references to valid blocks.
system.cpu.dcache.tags.avg_refs              1.635433                       # Average number of references to valid blocks.
system.cpu.dcache.tags.warmup_cycle      2535139622400                       # Cycle when the warmup percentage was hit.
system.cpu.dcache.tags.occ_blocks::cpu.data     0.999998                       # Average occupied blocks per requestor
system.cpu.dcache.tags.occ_blocks::switch_cpus.data   506.477649                       # Average occupied blocks per requestor
system.cpu.dcache.tags.occ_percent::cpu.data     0.001953                       # Average percentage of cache occupancy
system.cpu.dcache.tags.occ_percent::switch_cpus.data     0.989214                       # Average percentage of cache occupancy
system.cpu.dcache.tags.occ_percent::total     0.991167                       # Average percentage of cache occupancy
system.cpu.dcache.tags.occ_task_id_blocks::1024          512                       # Occupied blocks per task id
system.cpu.dcache.tags.age_task_id_blocks_1024::0          210                       # Occupied blocks per task id
system.cpu.dcache.tags.age_task_id_blocks_1024::1          296                       # Occupied blocks per task id
system.cpu.dcache.tags.age_task_id_blocks_1024::3            6                       # Occupied blocks per task id
system.cpu.dcache.tags.occ_task_id_percent::1024            1                       # Percentage of cache occupancy per task id
system.cpu.dcache.tags.tag_accesses           1985646                       # Number of tag accesses
system.cpu.dcache.tags.data_accesses          1985646                       # Number of data accesses
system.cpu.dcache.pwrStateResidencyTicks::UNDEFINED 2537299200400                       # Cumulative time (in ticks) in various power states
system.cpu.dcache.ReadReq_hits::switch_cpus.data        95277                       # number of ReadReq hits
system.cpu.dcache.ReadReq_hits::total           95277                       # number of ReadReq hits
system.cpu.dcache.WriteReq_hits::cpu.data            1                       # number of WriteReq hits
system.cpu.dcache.WriteReq_hits::switch_cpus.data        60098                       # number of WriteReq hits
system.cpu.dcache.WriteReq_hits::total          60099                       # number of WriteReq hits
system.cpu.dcache.demand_hits::cpu.data             1                       # number of demand (read+write) hits
system.cpu.dcache.demand_hits::switch_cpus.data       155375                       # number of demand (read+write) hits
system.cpu.dcache.demand_hits::total           155376                       # number of demand (read+write) hits
system.cpu.dcache.overall_hits::cpu.data            1                       # number of overall hits
system.cpu.dcache.overall_hits::switch_cpus.data       155375                       # number of overall hits
system.cpu.dcache.overall_hits::total          155376                       # number of overall hits
system.cpu.dcache.ReadReq_misses::switch_cpus.data        46127                       # number of ReadReq misses
system.cpu.dcache.ReadReq_misses::total         46127                       # number of ReadReq misses
system.cpu.dcache.WriteReq_misses::cpu.data            1                       # number of WriteReq misses
system.cpu.dcache.WriteReq_misses::switch_cpus.data        40704                       # number of WriteReq misses
system.cpu.dcache.WriteReq_misses::total        40705                       # number of WriteReq misses
system.cpu.dcache.demand_misses::cpu.data            1                       # number of demand (read+write) misses
system.cpu.dcache.demand_misses::switch_cpus.data        86831                       # number of demand (read+write) misses
system.cpu.dcache.demand_misses::total          86832                       # number of demand (read+write) misses
system.cpu.dcache.overall_misses::cpu.data            1                       # number of overall misses
system.cpu.dcache.overall_misses::switch_cpus.data        86831                       # number of overall misses
system.cpu.dcache.overall_misses::total         86832                       # number of overall misses
system.cpu.dcache.ReadReq_miss_latency::switch_cpus.data   4322959600                       # number of ReadReq miss cycles
system.cpu.dcache.ReadReq_miss_latency::total   4322959600                       # number of ReadReq miss cycles
system.cpu.dcache.WriteReq_miss_latency::switch_cpus.data   2151920800                       # number of WriteReq miss cycles
system.cpu.dcache.WriteReq_miss_latency::total   2151920800                       # number of WriteReq miss cycles
system.cpu.dcache.demand_miss_latency::switch_cpus.data   6474880400                       # number of demand (read+write) miss cycles
system.cpu.dcache.demand_miss_latency::total   6474880400                       # number of demand (read+write) miss cycles
system.cpu.dcache.overall_miss_latency::switch_cpus.data   6474880400                       # number of overall miss cycles
system.cpu.dcache.overall_miss_latency::total   6474880400                       # number of overall miss cycles
system.cpu.dcache.ReadReq_accesses::switch_cpus.data       141404                       # number of ReadReq accesses(hits+misses)
system.cpu.dcache.ReadReq_accesses::total       141404                       # number of ReadReq accesses(hits+misses)
system.cpu.dcache.WriteReq_accesses::cpu.data            2                       # number of WriteReq accesses(hits+misses)
system.cpu.dcache.WriteReq_accesses::switch_cpus.data       100802                       # number of WriteReq accesses(hits+misses)
system.cpu.dcache.WriteReq_accesses::total       100804                       # number of WriteReq accesses(hits+misses)
system.cpu.dcache.demand_accesses::cpu.data            2                       # number of demand (read+write) accesses
system.cpu.dcache.demand_accesses::switch_cpus.data       242206                       # number of demand (read+write) accesses
system.cpu.dcache.demand_accesses::total       242208                       # number of demand (read+write) accesses
system.cpu.dcache.overall_accesses::cpu.data            2                       # number of overall (read+write) accesses
system.cpu.dcache.overall_accesses::switch_cpus.data       242206                       # number of overall (read+write) accesses
system.cpu.dcache.overall_accesses::total       242208                       # number of overall (read+write) accesses
system.cpu.dcache.ReadReq_miss_rate::switch_cpus.data     0.326207                       # miss rate for ReadReq accesses
system.cpu.dcache.ReadReq_miss_rate::total     0.326207                       # miss rate for ReadReq accesses
system.cpu.dcache.WriteReq_miss_rate::cpu.data     0.500000                       # miss rate for WriteReq accesses
system.cpu.dcache.WriteReq_miss_rate::switch_cpus.data     0.403802                       # miss rate for WriteReq accesses
system.cpu.dcache.WriteReq_miss_rate::total     0.403803                       # miss rate for WriteReq accesses
system.cpu.dcache.demand_miss_rate::cpu.data     0.500000                       # miss rate for demand accesses
system.cpu.dcache.demand_miss_rate::switch_cpus.data     0.358501                       # miss rate for demand accesses
system.cpu.dcache.demand_miss_rate::total     0.358502                       # miss rate for demand accesses
system.cpu.dcache.overall_miss_rate::cpu.data     0.500000                       # miss rate for overall accesses
system.cpu.dcache.overall_miss_rate::switch_cpus.data     0.358501                       # miss rate for overall accesses
system.cpu.dcache.overall_miss_rate::total     0.358502                       # miss rate for overall accesses
system.cpu.dcache.ReadReq_avg_miss_latency::switch_cpus.data 93718.637674                       # average ReadReq miss latency
system.cpu.dcache.ReadReq_avg_miss_latency::total 93718.637674                       # average ReadReq miss latency
system.cpu.dcache.WriteReq_avg_miss_latency::switch_cpus.data 52867.551101                       # average WriteReq miss latency
system.cpu.dcache.WriteReq_avg_miss_latency::total 52866.252303                       # average WriteReq miss latency
system.cpu.dcache.demand_avg_miss_latency::switch_cpus.data 74568.764612                       # average overall miss latency
system.cpu.dcache.demand_avg_miss_latency::total 74567.905841                       # average overall miss latency
system.cpu.dcache.overall_avg_miss_latency::switch_cpus.data 74568.764612                       # average overall miss latency
system.cpu.dcache.overall_avg_miss_latency::total 74567.905841                       # average overall miss latency
system.cpu.dcache.blocked_cycles::no_mshrs       294488                       # number of cycles access was blocked
system.cpu.dcache.blocked_cycles::no_targets            0                       # number of cycles access was blocked
system.cpu.dcache.blocked::no_mshrs              1462                       # number of cycles access was blocked
system.cpu.dcache.blocked::no_targets               0                       # number of cycles access was blocked
system.cpu.dcache.avg_blocked_cycles::no_mshrs   201.428181                       # average number of cycles each access was blocked
system.cpu.dcache.avg_blocked_cycles::no_targets          nan                       # average number of cycles each access was blocked
system.cpu.dcache.writebacks::writebacks        40271                       # number of writebacks
system.cpu.dcache.writebacks::total             40271                       # number of writebacks
system.cpu.dcache.ReadReq_mshr_hits::switch_cpus.data        38849                       # number of ReadReq MSHR hits
system.cpu.dcache.ReadReq_mshr_hits::total        38849                       # number of ReadReq MSHR hits
system.cpu.dcache.demand_mshr_hits::switch_cpus.data        38849                       # number of demand (read+write) MSHR hits
system.cpu.dcache.demand_mshr_hits::total        38849                       # number of demand (read+write) MSHR hits
system.cpu.dcache.overall_mshr_hits::switch_cpus.data        38849                       # number of overall MSHR hits
system.cpu.dcache.overall_mshr_hits::total        38849                       # number of overall MSHR hits
system.cpu.dcache.ReadReq_mshr_misses::switch_cpus.data         7278                       # number of ReadReq MSHR misses
system.cpu.dcache.ReadReq_mshr_misses::total         7278                       # number of ReadReq MSHR misses
system.cpu.dcache.WriteReq_mshr_misses::switch_cpus.data        40704                       # number of WriteReq MSHR misses
system.cpu.dcache.WriteReq_mshr_misses::total        40704                       # number of WriteReq MSHR misses
system.cpu.dcache.demand_mshr_misses::switch_cpus.data        47982                       # number of demand (read+write) MSHR misses
system.cpu.dcache.demand_mshr_misses::total        47982                       # number of demand (read+write) MSHR misses
system.cpu.dcache.overall_mshr_misses::switch_cpus.data        47982                       # number of overall MSHR misses
system.cpu.dcache.overall_mshr_misses::total        47982                       # number of overall MSHR misses
system.cpu.dcache.ReadReq_mshr_miss_latency::switch_cpus.data    677736400                       # number of ReadReq MSHR miss cycles
system.cpu.dcache.ReadReq_mshr_miss_latency::total    677736400                       # number of ReadReq MSHR miss cycles
system.cpu.dcache.WriteReq_mshr_miss_latency::switch_cpus.data   2119358400                       # number of WriteReq MSHR miss cycles
system.cpu.dcache.WriteReq_mshr_miss_latency::total   2119358400                       # number of WriteReq MSHR miss cycles
system.cpu.dcache.demand_mshr_miss_latency::switch_cpus.data   2797094800                       # number of demand (read+write) MSHR miss cycles
system.cpu.dcache.demand_mshr_miss_latency::total   2797094800                       # number of demand (read+write) MSHR miss cycles
system.cpu.dcache.overall_mshr_miss_latency::switch_cpus.data   2797094800                       # number of overall MSHR miss cycles
system.cpu.dcache.overall_mshr_miss_latency::total   2797094800                       # number of overall MSHR miss cycles
system.cpu.dcache.ReadReq_mshr_miss_rate::switch_cpus.data     0.051470                       # mshr miss rate for ReadReq accesses
system.cpu.dcache.ReadReq_mshr_miss_rate::total     0.051470                       # mshr miss rate for ReadReq accesses
system.cpu.dcache.WriteReq_mshr_miss_rate::switch_cpus.data     0.403802                       # mshr miss rate for WriteReq accesses
system.cpu.dcache.WriteReq_mshr_miss_rate::total     0.403794                       # mshr miss rate for WriteReq accesses
system.cpu.dcache.demand_mshr_miss_rate::switch_cpus.data     0.198104                       # mshr miss rate for demand accesses
system.cpu.dcache.demand_mshr_miss_rate::total     0.198102                       # mshr miss rate for demand accesses
system.cpu.dcache.overall_mshr_miss_rate::switch_cpus.data     0.198104                       # mshr miss rate for overall accesses
system.cpu.dcache.overall_mshr_miss_rate::total     0.198102                       # mshr miss rate for overall accesses
system.cpu.dcache.ReadReq_avg_mshr_miss_latency::switch_cpus.data 93121.242099                       # average ReadReq mshr miss latency
system.cpu.dcache.ReadReq_avg_mshr_miss_latency::total 93121.242099                       # average ReadReq mshr miss latency
system.cpu.dcache.WriteReq_avg_mshr_miss_latency::switch_cpus.data 52067.570755                       # average WriteReq mshr miss latency
system.cpu.dcache.WriteReq_avg_mshr_miss_latency::total 52067.570755                       # average WriteReq mshr miss latency
system.cpu.dcache.demand_avg_mshr_miss_latency::switch_cpus.data 58294.668834                       # average overall mshr miss latency
system.cpu.dcache.demand_avg_mshr_miss_latency::total 58294.668834                       # average overall mshr miss latency
system.cpu.dcache.overall_avg_mshr_miss_latency::switch_cpus.data 58294.668834                       # average overall mshr miss latency
system.cpu.dcache.overall_avg_mshr_miss_latency::total 58294.668834                       # average overall mshr miss latency
system.cpu.dtb_walker_cache.tags.pwrStateResidencyTicks::UNDEFINED 2537299200400                       # Cumulative time (in ticks) in various power states
system.cpu.dtb_walker_cache.tags.replacements            0                       # number of replacements
system.cpu.dtb_walker_cache.tags.tagsinuse            0                       # Cycle average of tags in use
system.cpu.dtb_walker_cache.tags.total_refs            0                       # Total number of references to valid blocks.
system.cpu.dtb_walker_cache.tags.sampled_refs            0                       # Sample count of references to valid blocks.
system.cpu.dtb_walker_cache.tags.avg_refs          nan                       # Average number of references to valid blocks.
system.cpu.dtb_walker_cache.tags.warmup_cycle            0                       # Cycle when the warmup percentage was hit.
system.cpu.dtb_walker_cache.tags.tag_accesses            0                       # Number of tag accesses
system.cpu.dtb_walker_cache.tags.data_accesses            0                       # Number of data accesses
system.cpu.dtb_walker_cache.pwrStateResidencyTicks::UNDEFINED 2537299200400                       # Cumulative time (in ticks) in various power states
system.cpu.dtb_walker_cache.blocked_cycles::no_mshrs            0                       # number of cycles access was blocked
system.cpu.dtb_walker_cache.blocked_cycles::no_targets            0                       # number of cycles access was blocked
system.cpu.dtb_walker_cache.blocked::no_mshrs            0                       # number of cycles access was blocked
system.cpu.dtb_walker_cache.blocked::no_targets            0                       # number of cycles access was blocked
system.cpu.dtb_walker_cache.avg_blocked_cycles::no_mshrs          nan                       # average number of cycles each access was blocked
system.cpu.dtb_walker_cache.avg_blocked_cycles::no_targets          nan                       # average number of cycles each access was blocked
system.cpu.icache.tags.pwrStateResidencyTicks::UNDEFINED 2537299200400                       # Cumulative time (in ticks) in various power states
system.cpu.icache.tags.replacements                 0                       # number of replacements
system.cpu.icache.tags.tagsinuse            34.783672                       # Cycle average of tags in use
system.cpu.icache.tags.total_refs                   0                       # Total number of references to valid blocks.
system.cpu.icache.tags.sampled_refs                 0                       # Sample count of references to valid blocks.
system.cpu.icache.tags.avg_refs                   nan                       # Average number of references to valid blocks.
system.cpu.icache.tags.warmup_cycle                 0                       # Cycle when the warmup percentage was hit.
system.cpu.icache.tags.occ_blocks::cpu.inst     1.999999                       # Average occupied blocks per requestor
system.cpu.icache.tags.occ_blocks::switch_cpus.inst    32.783673                       # Average occupied blocks per requestor
system.cpu.icache.tags.occ_percent::cpu.inst     0.003906                       # Average percentage of cache occupancy
system.cpu.icache.tags.occ_percent::switch_cpus.inst     0.064031                       # Average percentage of cache occupancy
system.cpu.icache.tags.occ_percent::total     0.067937                       # Average percentage of cache occupancy
system.cpu.icache.tags.occ_task_id_blocks::1024           35                       # Occupied blocks per task id
system.cpu.icache.tags.age_task_id_blocks_1024::3           35                       # Occupied blocks per task id
system.cpu.icache.tags.occ_task_id_percent::1024     0.068359                       # Percentage of cache occupancy per task id
system.cpu.icache.tags.tag_accesses            643691                       # Number of tag accesses
system.cpu.icache.tags.data_accesses           643691                       # Number of data accesses
system.cpu.icache.pwrStateResidencyTicks::UNDEFINED 2537299200400                       # Cumulative time (in ticks) in various power states
system.cpu.icache.ReadReq_hits::cpu.inst           20                       # number of ReadReq hits
system.cpu.icache.ReadReq_hits::switch_cpus.inst        80401                       # number of ReadReq hits
system.cpu.icache.ReadReq_hits::total           80421                       # number of ReadReq hits
system.cpu.icache.demand_hits::cpu.inst            20                       # number of demand (read+write) hits
system.cpu.icache.demand_hits::switch_cpus.inst        80401                       # number of demand (read+write) hits
system.cpu.icache.demand_hits::total            80421                       # number of demand (read+write) hits
system.cpu.icache.overall_hits::cpu.inst           20                       # number of overall hits
system.cpu.icache.overall_hits::switch_cpus.inst        80401                       # number of overall hits
system.cpu.icache.overall_hits::total           80421                       # number of overall hits
system.cpu.icache.ReadReq_misses::cpu.inst            2                       # number of ReadReq misses
system.cpu.icache.ReadReq_misses::switch_cpus.inst           34                       # number of ReadReq misses
system.cpu.icache.ReadReq_misses::total            36                       # number of ReadReq misses
system.cpu.icache.demand_misses::cpu.inst            2                       # number of demand (read+write) misses
system.cpu.icache.demand_misses::switch_cpus.inst           34                       # number of demand (read+write) misses
system.cpu.icache.demand_misses::total             36                       # number of demand (read+write) misses
system.cpu.icache.overall_misses::cpu.inst            2                       # number of overall misses
system.cpu.icache.overall_misses::switch_cpus.inst           34                       # number of overall misses
system.cpu.icache.overall_misses::total            36                       # number of overall misses
system.cpu.icache.ReadReq_miss_latency::switch_cpus.inst      2598000                       # number of ReadReq miss cycles
system.cpu.icache.ReadReq_miss_latency::total      2598000                       # number of ReadReq miss cycles
system.cpu.icache.demand_miss_latency::switch_cpus.inst      2598000                       # number of demand (read+write) miss cycles
system.cpu.icache.demand_miss_latency::total      2598000                       # number of demand (read+write) miss cycles
system.cpu.icache.overall_miss_latency::switch_cpus.inst      2598000                       # number of overall miss cycles
system.cpu.icache.overall_miss_latency::total      2598000                       # number of overall miss cycles
system.cpu.icache.ReadReq_accesses::cpu.inst           22                       # number of ReadReq accesses(hits+misses)
system.cpu.icache.ReadReq_accesses::switch_cpus.inst        80435                       # number of ReadReq accesses(hits+misses)
system.cpu.icache.ReadReq_accesses::total        80457                       # number of ReadReq accesses(hits+misses)
system.cpu.icache.demand_accesses::cpu.inst           22                       # number of demand (read+write) accesses
system.cpu.icache.demand_accesses::switch_cpus.inst        80435                       # number of demand (read+write) accesses
system.cpu.icache.demand_accesses::total        80457                       # number of demand (read+write) accesses
system.cpu.icache.overall_accesses::cpu.inst           22                       # number of overall (read+write) accesses
system.cpu.icache.overall_accesses::switch_cpus.inst        80435                       # number of overall (read+write) accesses
system.cpu.icache.overall_accesses::total        80457                       # number of overall (read+write) accesses
system.cpu.icache.ReadReq_miss_rate::cpu.inst     0.090909                       # miss rate for ReadReq accesses
system.cpu.icache.ReadReq_miss_rate::switch_cpus.inst     0.000423                       # miss rate for ReadReq accesses
system.cpu.icache.ReadReq_miss_rate::total     0.000447                       # miss rate for ReadReq accesses
system.cpu.icache.demand_miss_rate::cpu.inst     0.090909                       # miss rate for demand accesses
system.cpu.icache.demand_miss_rate::switch_cpus.inst     0.000423                       # miss rate for demand accesses
system.cpu.icache.demand_miss_rate::total     0.000447                       # miss rate for demand accesses
system.cpu.icache.overall_miss_rate::cpu.inst     0.090909                       # miss rate for overall accesses
system.cpu.icache.overall_miss_rate::switch_cpus.inst     0.000423                       # miss rate for overall accesses
system.cpu.icache.overall_miss_rate::total     0.000447                       # miss rate for overall accesses
system.cpu.icache.ReadReq_avg_miss_latency::switch_cpus.inst 76411.764706                       # average ReadReq miss latency
system.cpu.icache.ReadReq_avg_miss_latency::total 72166.666667                       # average ReadReq miss latency
system.cpu.icache.demand_avg_miss_latency::switch_cpus.inst 76411.764706                       # average overall miss latency
system.cpu.icache.demand_avg_miss_latency::total 72166.666667                       # average overall miss latency
system.cpu.icache.overall_avg_miss_latency::switch_cpus.inst 76411.764706                       # average overall miss latency
system.cpu.icache.overall_avg_miss_latency::total 72166.666667                       # average overall miss latency
system.cpu.icache.blocked_cycles::no_mshrs            0                       # number of cycles access was blocked
system.cpu.icache.blocked_cycles::no_targets            0                       # number of cycles access was blocked
system.cpu.icache.blocked::no_mshrs                 0                       # number of cycles access was blocked
system.cpu.icache.blocked::no_targets               0                       # number of cycles access was blocked
system.cpu.icache.avg_blocked_cycles::no_mshrs          nan                       # average number of cycles each access was blocked
system.cpu.icache.avg_blocked_cycles::no_targets          nan                       # average number of cycles each access was blocked
system.cpu.icache.ReadReq_mshr_hits::switch_cpus.inst            1                       # number of ReadReq MSHR hits
system.cpu.icache.ReadReq_mshr_hits::total            1                       # number of ReadReq MSHR hits
system.cpu.icache.demand_mshr_hits::switch_cpus.inst            1                       # number of demand (read+write) MSHR hits
system.cpu.icache.demand_mshr_hits::total            1                       # number of demand (read+write) MSHR hits
system.cpu.icache.overall_mshr_hits::switch_cpus.inst            1                       # number of overall MSHR hits
system.cpu.icache.overall_mshr_hits::total            1                       # number of overall MSHR hits
system.cpu.icache.ReadReq_mshr_misses::switch_cpus.inst           33                       # number of ReadReq MSHR misses
system.cpu.icache.ReadReq_mshr_misses::total           33                       # number of ReadReq MSHR misses
system.cpu.icache.demand_mshr_misses::switch_cpus.inst           33                       # number of demand (read+write) MSHR misses
system.cpu.icache.demand_mshr_misses::total           33                       # number of demand (read+write) MSHR misses
system.cpu.icache.overall_mshr_misses::switch_cpus.inst           33                       # number of overall MSHR misses
system.cpu.icache.overall_mshr_misses::total           33                       # number of overall MSHR misses
system.cpu.icache.ReadReq_mshr_miss_latency::switch_cpus.inst      2512400                       # number of ReadReq MSHR miss cycles
system.cpu.icache.ReadReq_mshr_miss_latency::total      2512400                       # number of ReadReq MSHR miss cycles
system.cpu.icache.demand_mshr_miss_latency::switch_cpus.inst      2512400                       # number of demand (read+write) MSHR miss cycles
system.cpu.icache.demand_mshr_miss_latency::total      2512400                       # number of demand (read+write) MSHR miss cycles
system.cpu.icache.overall_mshr_miss_latency::switch_cpus.inst      2512400                       # number of overall MSHR miss cycles
system.cpu.icache.overall_mshr_miss_latency::total      2512400                       # number of overall MSHR miss cycles
system.cpu.icache.ReadReq_mshr_miss_rate::switch_cpus.inst     0.000410                       # mshr miss rate for ReadReq accesses
system.cpu.icache.ReadReq_mshr_miss_rate::total     0.000410                       # mshr miss rate for ReadReq accesses
system.cpu.icache.demand_mshr_miss_rate::switch_cpus.inst     0.000410                       # mshr miss rate for demand accesses
system.cpu.icache.demand_mshr_miss_rate::total     0.000410                       # mshr miss rate for demand accesses
system.cpu.icache.overall_mshr_miss_rate::switch_cpus.inst     0.000410                       # mshr miss rate for overall accesses
system.cpu.icache.overall_mshr_miss_rate::total     0.000410                       # mshr miss rate for overall accesses
system.cpu.icache.ReadReq_avg_mshr_miss_latency::switch_cpus.inst 76133.333333                       # average ReadReq mshr miss latency
system.cpu.icache.ReadReq_avg_mshr_miss_latency::total 76133.333333                       # average ReadReq mshr miss latency
system.cpu.icache.demand_avg_mshr_miss_latency::switch_cpus.inst 76133.333333                       # average overall mshr miss latency
system.cpu.icache.demand_avg_mshr_miss_latency::total 76133.333333                       # average overall mshr miss latency
system.cpu.icache.overall_avg_mshr_miss_latency::switch_cpus.inst 76133.333333                       # average overall mshr miss latency
system.cpu.icache.overall_avg_mshr_miss_latency::total 76133.333333                       # average overall mshr miss latency
system.cpu.itb_walker_cache.tags.pwrStateResidencyTicks::UNDEFINED 2537299200400                       # Cumulative time (in ticks) in various power states
system.cpu.itb_walker_cache.tags.replacements            0                       # number of replacements
system.cpu.itb_walker_cache.tags.tagsinuse            0                       # Cycle average of tags in use
system.cpu.itb_walker_cache.tags.total_refs            0                       # Total number of references to valid blocks.
system.cpu.itb_walker_cache.tags.sampled_refs            0                       # Sample count of references to valid blocks.
system.cpu.itb_walker_cache.tags.avg_refs          nan                       # Average number of references to valid blocks.
system.cpu.itb_walker_cache.tags.warmup_cycle            0                       # Cycle when the warmup percentage was hit.
system.cpu.itb_walker_cache.tags.tag_accesses            0                       # Number of tag accesses
system.cpu.itb_walker_cache.tags.data_accesses            0                       # Number of data accesses
system.cpu.itb_walker_cache.pwrStateResidencyTicks::UNDEFINED 2537299200400                       # Cumulative time (in ticks) in various power states
system.cpu.itb_walker_cache.blocked_cycles::no_mshrs            0                       # number of cycles access was blocked
system.cpu.itb_walker_cache.blocked_cycles::no_targets            0                       # number of cycles access was blocked
system.cpu.itb_walker_cache.blocked::no_mshrs            0                       # number of cycles access was blocked
system.cpu.itb_walker_cache.blocked::no_targets            0                       # number of cycles access was blocked
system.cpu.itb_walker_cache.avg_blocked_cycles::no_mshrs          nan                       # average number of cycles each access was blocked
system.cpu.itb_walker_cache.avg_blocked_cycles::no_targets          nan                       # average number of cycles each access was blocked
system.l2.tags.pwrStateResidencyTicks::UNDEFINED 2537299200400                       # Cumulative time (in ticks) in various power states
system.l2.tags.replacements                     13483                       # number of replacements
system.l2.tags.tagsinuse                 12064.498424                       # Cycle average of tags in use
system.l2.tags.total_refs                       29244                       # Total number of references to valid blocks.
system.l2.tags.sampled_refs                     13483                       # Sample count of references to valid blocks.
system.l2.tags.avg_refs                      2.168953                       # Average number of references to valid blocks.
system.l2.tags.warmup_cycle              2536315493000                       # Cycle when the warmup percentage was hit.
system.l2.tags.occ_blocks::cpu.inst          1.019858                       # Average occupied blocks per requestor
system.l2.tags.occ_blocks::cpu.data          0.530406                       # Average occupied blocks per requestor
system.l2.tags.occ_blocks::switch_cpus.inst    16.625375                       # Average occupied blocks per requestor
system.l2.tags.occ_blocks::switch_cpus.data 12046.322785                       # Average occupied blocks per requestor
system.l2.tags.occ_percent::cpu.inst         0.000062                       # Average percentage of cache occupancy
system.l2.tags.occ_percent::cpu.data         0.000032                       # Average percentage of cache occupancy
system.l2.tags.occ_percent::switch_cpus.inst     0.001015                       # Average percentage of cache occupancy
system.l2.tags.occ_percent::switch_cpus.data     0.735249                       # Average percentage of cache occupancy
system.l2.tags.occ_percent::total            0.736359                       # Average percentage of cache occupancy
system.l2.tags.occ_task_id_blocks::1024         16384                       # Occupied blocks per task id
system.l2.tags.age_task_id_blocks_1024::0          128                       # Occupied blocks per task id
system.l2.tags.age_task_id_blocks_1024::1         1163                       # Occupied blocks per task id
system.l2.tags.age_task_id_blocks_1024::2        11618                       # Occupied blocks per task id
system.l2.tags.age_task_id_blocks_1024::3         3475                       # Occupied blocks per task id
system.l2.tags.occ_task_id_percent::1024            1                       # Percentage of cache occupancy per task id
system.l2.tags.tag_accesses                    793771                       # Number of tag accesses
system.l2.tags.data_accesses                   793771                       # Number of data accesses
system.l2.pwrStateResidencyTicks::UNDEFINED 2537299200400                       # Cumulative time (in ticks) in various power states
system.l2.WritebackDirty_hits::writebacks        40271                       # number of WritebackDirty hits
system.l2.WritebackDirty_hits::total            40271                       # number of WritebackDirty hits
system.l2.ReadExReq_hits::switch_cpus.data        18149                       # number of ReadExReq hits
system.l2.ReadExReq_hits::total                 18149                       # number of ReadExReq hits
system.l2.ReadSharedReq_hits::switch_cpus.data            2                       # number of ReadSharedReq hits
system.l2.ReadSharedReq_hits::total                 2                       # number of ReadSharedReq hits
system.l2.demand_hits::switch_cpus.data         18151                       # number of demand (read+write) hits
system.l2.demand_hits::total                    18151                       # number of demand (read+write) hits
system.l2.overall_hits::switch_cpus.data        18151                       # number of overall hits
system.l2.overall_hits::total                   18151                       # number of overall hits
system.l2.ReadExReq_misses::cpu.data                1                       # number of ReadExReq misses
system.l2.ReadExReq_misses::switch_cpus.data        22555                       # number of ReadExReq misses
system.l2.ReadExReq_misses::total               22556                       # number of ReadExReq misses
system.l2.ReadCleanReq_misses::cpu.inst             2                       # number of ReadCleanReq misses
system.l2.ReadCleanReq_misses::switch_cpus.inst           33                       # number of ReadCleanReq misses
system.l2.ReadCleanReq_misses::total               35                       # number of ReadCleanReq misses
system.l2.ReadSharedReq_misses::switch_cpus.data         7276                       # number of ReadSharedReq misses
system.l2.ReadSharedReq_misses::total            7276                       # number of ReadSharedReq misses
system.l2.demand_misses::cpu.inst                   2                       # number of demand (read+write) misses
system.l2.demand_misses::cpu.data                   1                       # number of demand (read+write) misses
system.l2.demand_misses::switch_cpus.inst           33                       # number of demand (read+write) misses
system.l2.demand_misses::switch_cpus.data        29831                       # number of demand (read+write) misses
system.l2.demand_misses::total                  29867                       # number of demand (read+write) misses
system.l2.overall_misses::cpu.inst                  2                       # number of overall misses
system.l2.overall_misses::cpu.data                  1                       # number of overall misses
system.l2.overall_misses::switch_cpus.inst           33                       # number of overall misses
[...]
system.switch_cpus.iq.fp_inst_queue_writes    112144211                       # Number of floating instruction queue writes
system.switch_cpus.iq.fp_inst_queue_wakeup_accesses    110511226                       # Number of floating instruction queue wakeup accesses
system.switch_cpus.iq.int_alu_accesses       11836388                       # Number of integer alu accesses
system.switch_cpus.iq.fp_alu_accesses       112967307                       # Number of floating point alu accesses
system.switch_cpus.iew.lsq.thread0.forwLoads      5078521                       # Number of loads that had data forwarded from stores
system.switch_cpus.iew.lsq.thread0.invAddrLoads            0                       # Number of loads ignored due to an invalid address
system.switch_cpus.iew.lsq.thread0.squashedLoads       341663                       # Number of loads squashed
system.switch_cpus.iew.lsq.thread0.ignoredResponses            0                       # Number of memory responses ignored because the instruction is squashed
system.switch_cpus.iew.lsq.thread0.memOrderViolation          576                       # Number of memory ordering violations
system.switch_cpus.iew.lsq.thread0.squashedStores        88430                       # Number of stores squashed
system.switch_cpus.iew.lsq.thread0.invAddrSwpfs            0                       # Number of software prefetches ignored due to an invalid address
system.switch_cpus.iew.lsq.thread0.blockedLoads            0                       # Number of blocked loads due to partial load-store forwarding
system.switch_cpus.iew.lsq.thread0.rescheduledLoads            0                       # Number of loads that were rescheduled
system.switch_cpus.iew.lsq.thread0.cacheBlocked       523785                       # Number of times an access to memory failed due to the cache being blocked
system.switch_cpus.iew.iewIdleCycles                0                       # Number of cycles IEW is idle
system.switch_cpus.iew.iewSquashCycles          22368                       # Number of cycles IEW is squashing
system.switch_cpus.iew.iewBlockCycles        61339040                       # Number of cycles IEW is blocking
system.switch_cpus.iew.iewUnblockCycles     269376984                       # Number of cycles IEW is unblocking
system.switch_cpus.iew.iewDispatchedInsts    123057342                       # Number of instructions dispatched to IQ
system.switch_cpus.iew.iewDispSquashedInsts           66                       # Number of squashed instructions skipped by dispatch
system.switch_cpus.iew.iewDispLoadInsts      21922765                       # Number of dispatched load instructions
system.switch_cpus.iew.iewDispStoreInsts     12123739                       # Number of dispatched store instructions
system.switch_cpus.iew.iewDispNonSpecInsts            0                       # Number of dispatched non-speculative instructions
system.switch_cpus.iew.iewIQFullEvents         981916                       # Number of times the IQ has become full, causing a stall
system.switch_cpus.iew.iewLSQFullEvents     267806081                       # Number of times the LSQ has become full, causing a stall
system.switch_cpus.iew.memOrderViolationEvents          576                       # Number of memory order violations
system.switch_cpus.iew.predictedTakenIncorrect        10705                       # Number of branches that were predicted taken incorrectly
system.switch_cpus.iew.predictedNotTakenIncorrect        11284                       # Number of branches that were predicted not taken incorrectly
system.switch_cpus.iew.branchMispredicts        21989                       # Number of branch mispredicts detected at execute
system.switch_cpus.iew.iewExecutedInsts     123008095                       # Number of executed instructions
system.switch_cpus.iew.iewExecLoadInsts      22351903                       # Number of load instructions executed
system.switch_cpus.iew.iewExecSquashedInsts         3619                       # Number of squashed instructions skipped in execute
system.switch_cpus.iew.exec_swp                     0                       # number of swp insts executed
system.switch_cpus.iew.exec_nop                     0                       # number of nop insts executed
system.switch_cpus.iew.exec_refs             34428296                       # number of memory reference insts executed
system.switch_cpus.iew.exec_branches          1337652                       # Number of branches executed
system.switch_cpus.iew.exec_stores           12076393                       # Number of stores executed
system.switch_cpus.iew.exec_rate             0.157287                       # Inst execution rate
system.switch_cpus.iew.wb_sent              122344508                       # cumulative count of insts sent to commit
system.switch_cpus.iew.wb_count             122344144                       # cumulative count of insts written-back
system.switch_cpus.iew.wb_producers          87933326                       # num instructions producing a value
system.switch_cpus.iew.wb_consumers         171178114                       # num instructions consuming a value
system.switch_cpus.iew.wb_rate               0.156438                       # insts written-back per cycle
system.switch_cpus.iew.wb_fanout             0.513695                       # average fanout of values written-back
system.switch_cpus.commit.commitSquashedInsts      1017087                       # The number of squashed insts skipped by commit
system.switch_cpus.commit.branchMispredicts        21986                       # The number of times a branch was mispredicted
system.switch_cpus.commit.committed_per_cycle::samples    781922151                       # Number of insts commited each cycle
system.switch_cpus.commit.committed_per_cycle::mean     0.156122                       # Number of insts commited each cycle
system.switch_cpus.commit.committed_per_cycle::stdev     0.600589                       # Number of insts commited each cycle
system.switch_cpus.commit.committed_per_cycle::underflows            0      0.00%      0.00% # Number of insts commited each cycle
system.switch_cpus.commit.committed_per_cycle::0    721343498     92.25%     92.25% # Number of insts commited each cycle
system.switch_cpus.commit.committed_per_cycle::1     27100416      3.47%     95.72% # Number of insts commited each cycle
system.switch_cpus.commit.committed_per_cycle::2      5460161      0.70%     96.42% # Number of insts commited each cycle
system.switch_cpus.commit.committed_per_cycle::3     28018076      3.58%    100.00% # Number of insts commited each cycle
system.switch_cpus.commit.committed_per_cycle::overflows            0      0.00%    100.00% # Number of insts commited each cycle
system.switch_cpus.commit.committed_per_cycle::min_value            0                       # Number of insts commited each cycle
system.switch_cpus.commit.committed_per_cycle::max_value            3                       # Number of insts commited each cycle
system.switch_cpus.commit.committed_per_cycle::total    781922151                       # Number of insts commited each cycle
system.switch_cpus.commit.committedInsts    100000000                       # Number of instructions committed
system.switch_cpus.commit.committedOps      122074966                       # Number of ops (including micro ops) committed
system.switch_cpus.commit.swp_count                 0                       # Number of s/w prefetches committed
system.switch_cpus.commit.refs               33616411                       # Number of memory references committed
system.switch_cpus.commit.loads              21581102                       # Number of loads committed
system.switch_cpus.commit.membars                   0                       # Number of memory barriers committed
system.switch_cpus.commit.branches            1326745                       # Number of branches committed
system.switch_cpus.commit.fp_insts          110297645                       # Number of committed floating point instructions.
system.switch_cpus.commit.int_insts          45013234                       # Number of committed integer instructions.
system.switch_cpus.commit.function_calls            3                       # Number of function calls committed.
system.switch_cpus.commit.op_class_0::No_OpClass            1      0.00%      0.00% # Class of committed instruction
system.switch_cpus.commit.op_class_0::IntAlu     29998982     24.57%     24.57% # Class of committed instruction
system.switch_cpus.commit.op_class_0::IntMult        60000      0.05%     24.62% # Class of committed instruction
system.switch_cpus.commit.op_class_0::IntDiv            0      0.00%     24.62% # Class of committed instruction
system.switch_cpus.commit.op_class_0::FloatAdd     58399572     47.84%     72.46% # Class of committed instruction
system.switch_cpus.commit.op_class_0::FloatCmp            0      0.00%     72.46% # Class of committed instruction
system.switch_cpus.commit.op_class_0::FloatCvt            0      0.00%     72.46% # Class of committed instruction
system.switch_cpus.commit.op_class_0::FloatMult            0      0.00%     72.46% # Class of committed instruction
system.switch_cpus.commit.op_class_0::FloatMultAcc            0      0.00%     72.46% # Class of committed instruction
system.switch_cpus.commit.op_class_0::FloatDiv            0      0.00%     72.46% # Class of committed instruction
system.switch_cpus.commit.op_class_0::FloatMisc            0      0.00%     72.46% # Class of committed instruction
system.switch_cpus.commit.op_class_0::FloatSqrt            0      0.00%     72.46% # Class of committed instruction
system.switch_cpus.commit.op_class_0::SimdAdd            0      0.00%     72.46% # Class of committed instruction
system.switch_cpus.commit.op_class_0::SimdAddAcc            0      0.00%     72.46% # Class of committed instruction
system.switch_cpus.commit.op_class_0::SimdAlu            0      0.00%     72.46% # Class of committed instruction
system.switch_cpus.commit.op_class_0::SimdCmp            0      0.00%     72.46% # Class of committed instruction
system.switch_cpus.commit.op_class_0::SimdCvt            0      0.00%     72.46% # Class of committed instruction
system.switch_cpus.commit.op_class_0::SimdMisc            0      0.00%     72.46% # Class of committed instruction
system.switch_cpus.commit.op_class_0::SimdMult            0      0.00%     72.46% # Class of committed instruction
system.switch_cpus.commit.op_class_0::SimdMultAcc            0      0.00%     72.46% # Class of committed instruction
system.switch_cpus.commit.op_class_0::SimdShift            0      0.00%     72.46% # Class of committed instruction
system.switch_cpus.commit.op_class_0::SimdShiftAcc            0      0.00%     72.46% # Class of committed instruction
system.switch_cpus.commit.op_class_0::SimdSqrt            0      0.00%     72.46% # Class of committed instruction
system.switch_cpus.commit.op_class_0::SimdFloatAdd            0      0.00%     72.46% # Class of committed instruction
system.switch_cpus.commit.op_class_0::SimdFloatAlu            0      0.00%     72.46% # Class of committed instruction
system.switch_cpus.commit.op_class_0::SimdFloatCmp            0      0.00%     72.46% # Class of committed instruction
system.switch_cpus.commit.op_class_0::SimdFloatCvt            0      0.00%     72.46% # Class of committed instruction
system.switch_cpus.commit.op_class_0::SimdFloatDiv            0      0.00%     72.46% # Class of committed instruction
system.switch_cpus.commit.op_class_0::SimdFloatMisc            0      0.00%     72.46% # Class of committed instruction
system.switch_cpus.commit.op_class_0::SimdFloatMult            0      0.00%     72.46% # Class of committed instruction
system.switch_cpus.commit.op_class_0::SimdFloatMultAcc            0      0.00%     72.46% # Class of committed instruction
system.switch_cpus.commit.op_class_0::SimdFloatSqrt            0      0.00%     72.46% # Class of committed instruction
system.switch_cpus.commit.op_class_0::MemRead       400490      0.33%     72.79% # Class of committed instruction
system.switch_cpus.commit.op_class_0::MemWrite            6      0.00%     72.79% # Class of committed instruction
system.switch_cpus.commit.op_class_0::FloatMemRead     21180612     17.35%     90.14% # Class of committed instruction
system.switch_cpus.commit.op_class_0::FloatMemWrite     12035303      9.86%    100.00% # Class of committed instruction
system.switch_cpus.commit.op_class_0::IprAccess            0      0.00%    100.00% # Class of committed instruction
system.switch_cpus.commit.op_class_0::InstPrefetch            0      0.00%    100.00% # Class of committed instruction
system.switch_cpus.commit.op_class_0::total    122074966                       # Class of committed instruction
system.switch_cpus.commit.bw_lim_events      28018076                       # number cycles where commit BW limit reached
system.switch_cpus.rob.rob_reads            876996128                       # The number of ROB reads
system.switch_cpus.rob.rob_writes           246319659                       # The number of ROB writes
system.switch_cpus.timesIdled                      21                       # Number of times that the entire CPU went into an idle state and unscheduled itself
system.switch_cpus.idleCycles                    3550                       # Total number of cycles that the CPU has spent unscheduled due to idling
system.switch_cpus.committedInsts           100000000                       # Number of Instructions Simulated
system.switch_cpus.committedOps             122074966                       # Number of Ops (including micro ops) Simulated
system.switch_cpus.cpi                       7.820612                       # CPI: Cycles Per Instruction
system.switch_cpus.cpi_total                 7.820612                       # CPI: Total CPI of All Threads
system.switch_cpus.ipc                       0.127867                       # IPC: Instructions Per Cycle
system.switch_cpus.ipc_total                 0.127867                       # IPC: Total IPC of All Threads
system.switch_cpus.int_regfile_reads         77895931                       # number of integer regfile reads
system.switch_cpus.int_regfile_writes        10555228                       # number of integer regfile writes
system.switch_cpus.fp_regfile_reads         223671583                       # number of floating regfile reads
system.switch_cpus.fp_regfile_writes         98435174                       # number of floating regfile writes
system.switch_cpus.cc_regfile_reads           6158352                       # number of cc regfile reads
system.switch_cpus.cc_regfile_writes          4973036                       # number of cc regfile writes
system.switch_cpus.misc_regfile_reads        39449958                       # number of misc regfile reads
system.tol2bus.snoop_filter.tot_requests     13526339                       # Total number of requests made to the snoop filter.
system.tol2bus.snoop_filter.hit_single_requests      6763146                       # Number of requests hitting in the snoop filter with a single holder of the requested data.
system.tol2bus.snoop_filter.hit_multi_requests            0                       # Number of requests hitting in the snoop filter with multiple (>1) holders of the requested data.
system.tol2bus.snoop_filter.tot_snoops            320                       # Total number of snoops made to the snoop filter.
system.tol2bus.snoop_filter.hit_single_snoops          320                       # Number of snoops hitting in the snoop filter with a single holder of the requested data.
system.tol2bus.snoop_filter.hit_multi_snoops            0                       # Number of snoops hitting in the snoop filter with multiple (>1) holders of the requested data.
system.tol2bus.pwrStateResidencyTicks::UNDEFINED 312824484800                       # Cumulative time (in ticks) in various power states
system.tol2bus.trans_dist::ReadResp           1103834                       # Transaction distribution
system.tol2bus.trans_dist::WritebackDirty      8713684                       # Transaction distribution
system.tol2bus.trans_dist::CleanEvict         2205345                       # Transaction distribution
system.tol2bus.trans_dist::ReadExReq          5659359                       # Transaction distribution
system.tol2bus.trans_dist::ReadExResp         5659359                       # Transaction distribution
system.tol2bus.trans_dist::ReadCleanReq            47                       # Transaction distribution
system.tol2bus.trans_dist::ReadSharedReq      1103787                       # Transaction distribution
system.tol2bus.pkt_count_system.cpu.icache.mem_side::system.l2.cpu_side           94                       # Packet count per connected master and slave (bytes)
system.tol2bus.pkt_count_system.cpu.dcache.mem_side::system.l2.cpu_side     20289438                       # Packet count per connected master and slave (bytes)
system.tol2bus.pkt_count::total              20289532                       # Packet count per connected master and slave (bytes)
system.tol2bus.pkt_size_system.cpu.icache.mem_side::system.l2.cpu_side         3008                       # Cumulative packet size per connected master and slave (bytes)
system.tol2bus.pkt_size_system.cpu.dcache.mem_side::system.l2.cpu_side    795040640                       # Cumulative packet size per connected master and slave (bytes)
system.tol2bus.pkt_size::total              795043648                       # Cumulative packet size per connected master and slave (bytes)
system.tol2bus.snoops                         4155883                       # Total snoops (count)
system.tol2bus.snoopTraffic                 195476480                       # Total snoop traffic (bytes)
system.tol2bus.snoop_fanout::samples         10919076                       # Request fanout histogram
system.tol2bus.snoop_fanout::mean            0.000029                       # Request fanout histogram
system.tol2bus.snoop_fanout::stdev           0.005413                       # Request fanout histogram
system.tol2bus.snoop_fanout::underflows             0      0.00%      0.00% # Request fanout histogram
system.tol2bus.snoop_fanout::0               10918756    100.00%    100.00% # Request fanout histogram
system.tol2bus.snoop_fanout::1                    320      0.00%    100.00% # Request fanout histogram
system.tol2bus.snoop_fanout::2                      0      0.00%    100.00% # Request fanout histogram
system.tol2bus.snoop_fanout::3                      0      0.00%    100.00% # Request fanout histogram
system.tol2bus.snoop_fanout::4                      0      0.00%    100.00% # Request fanout histogram
system.tol2bus.snoop_fanout::overflows              0      0.00%    100.00% # Request fanout histogram
system.tol2bus.snoop_fanout::min_value              0                       # Request fanout histogram
system.tol2bus.snoop_fanout::max_value              1                       # Request fanout histogram
system.tol2bus.snoop_fanout::total           10919076                       # Request fanout histogram
system.tol2bus.reqLayer0.occupancy         9938026800                       # Layer occupancy (ticks)
system.tol2bus.reqLayer0.utilization              3.2                       # Layer utilization (%)
system.tol2bus.respLayer0.occupancy             56400                       # Layer occupancy (ticks)
system.tol2bus.respLayer0.utilization             0.0                       # Layer utilization (%)
system.tol2bus.respLayer1.occupancy        8115775200                       # Layer occupancy (ticks)
system.tol2bus.respLayer1.utilization             2.6                       # Layer utilization (%)

---------- End Simulation Statistics   ----------
