
---------- Begin Simulation Statistics ----------
sim_seconds                                  0.003038                       # Number of seconds simulated
sim_ticks                                  3038138041                       # Number of ticks simulated
final_tick                               5195037301041                       # Number of ticks from beginning of simulation (restored from checkpoints and never reset)
sim_freq                                 1000000000000                       # Frequency of simulated ticks
host_inst_rate                                  92424                       # Simulator instruction rate (inst/s)
host_op_rate                                   130069                       # Simulator op (including micro ops) rate (op/s)
host_tick_rate                               70226758                       # Simulator tick rate (ticks/s)
host_mem_usage                                5344508                       # Number of bytes of host memory used
host_seconds                                    43.26                       # Real time elapsed on the host
sim_insts                                     3998406                       # Number of instructions simulated
sim_ops                                       5627011                       # Number of ops (including micro ops) simulated
system.voltage_domain.voltage                       1                       # Voltage in Volts
system.clk_domain.clock                          1000                       # Clock period in ticks
system.mem_ctrls.pwrStateResidencyTicks::UNDEFINED 5195037301041                       # Cumulative time (in ticks) in various power states
system.mem_ctrls.bytes_read::cpu0.inst             64                       # Number of bytes read from this memory
system.mem_ctrls.bytes_read::cpu0.data            192                       # Number of bytes read from this memory
system.mem_ctrls.bytes_read::cpu1.inst             64                       # Number of bytes read from this memory
system.mem_ctrls.bytes_read::cpu1.data            192                       # Number of bytes read from this memory
system.mem_ctrls.bytes_read::cpu2.inst             64                       # Number of bytes read from this memory
system.mem_ctrls.bytes_read::cpu2.data            192                       # Number of bytes read from this memory
system.mem_ctrls.bytes_read::cpu3.inst             64                       # Number of bytes read from this memory
system.mem_ctrls.bytes_read::cpu3.data            192                       # Number of bytes read from this memory
system.mem_ctrls.bytes_read::switch_cpus0.inst        12352                       # Number of bytes read from this memory
system.mem_ctrls.bytes_read::switch_cpus0.data       220160                       # Number of bytes read from this memory
system.mem_ctrls.bytes_read::switch_cpus1.inst        12352                       # Number of bytes read from this memory
system.mem_ctrls.bytes_read::switch_cpus1.data       219968                       # Number of bytes read from this memory
system.mem_ctrls.bytes_read::switch_cpus2.inst        12352                       # Number of bytes read from this memory
system.mem_ctrls.bytes_read::switch_cpus2.data       219584                       # Number of bytes read from this memory
system.mem_ctrls.bytes_read::switch_cpus3.inst        12352                       # Number of bytes read from this memory
system.mem_ctrls.bytes_read::switch_cpus3.data       220160                       # Number of bytes read from this memory
system.mem_ctrls.bytes_read::total             930304                       # Number of bytes read from this memory
system.mem_ctrls.bytes_inst_read::cpu0.inst           64                       # Number of instructions bytes read from this memory
system.mem_ctrls.bytes_inst_read::cpu1.inst           64                       # Number of instructions bytes read from this memory
system.mem_ctrls.bytes_inst_read::cpu2.inst           64                       # Number of instructions bytes read from this memory
system.mem_ctrls.bytes_inst_read::cpu3.inst           64                       # Number of instructions bytes read from this memory
system.mem_ctrls.bytes_inst_read::switch_cpus0.inst        12352                       # Number of instructions bytes read from this memory
system.mem_ctrls.bytes_inst_read::switch_cpus1.inst        12352                       # Number of instructions bytes read from this memory
system.mem_ctrls.bytes_inst_read::switch_cpus2.inst        12352                       # Number of instructions bytes read from this memory
system.mem_ctrls.bytes_inst_read::switch_cpus3.inst        12352                       # Number of instructions bytes read from this memory
system.mem_ctrls.bytes_inst_read::total         49664                       # Number of instructions bytes read from this memory
system.mem_ctrls.bytes_written::writebacks         4544                       # Number of bytes written to this memory
system.mem_ctrls.bytes_written::total            4544                       # Number of bytes written to this memory
system.mem_ctrls.num_reads::cpu0.inst               1                       # Number of read requests responded to by this memory
system.mem_ctrls.num_reads::cpu0.data               3                       # Number of read requests responded to by this memory
system.mem_ctrls.num_reads::cpu1.inst               1                       # Number of read requests responded to by this memory
system.mem_ctrls.num_reads::cpu1.data               3                       # Number of read requests responded to by this memory
system.mem_ctrls.num_reads::cpu2.inst               1                       # Number of read requests responded to by this memory
system.mem_ctrls.num_reads::cpu2.data               3                       # Number of read requests responded to by this memory
system.mem_ctrls.num_reads::cpu3.inst               1                       # Number of read requests responded to by this memory
system.mem_ctrls.num_reads::cpu3.data               3                       # Number of read requests responded to by this memory
system.mem_ctrls.num_reads::switch_cpus0.inst          193                       # Number of read requests responded to by this memory
system.mem_ctrls.num_reads::switch_cpus0.data         3440                       # Number of read requests responded to by this memory
system.mem_ctrls.num_reads::switch_cpus1.inst          193                       # Number of read requests responded to by this memory
system.mem_ctrls.num_reads::switch_cpus1.data         3437                       # Number of read requests responded to by this memory
system.mem_ctrls.num_reads::switch_cpus2.inst          193                       # Number of read requests responded to by this memory
system.mem_ctrls.num_reads::switch_cpus2.data         3431                       # Number of read requests responded to by this memory
system.mem_ctrls.num_reads::switch_cpus3.inst          193                       # Number of read requests responded to by this memory
system.mem_ctrls.num_reads::switch_cpus3.data         3440                       # Number of read requests responded to by this memory
system.mem_ctrls.num_reads::total               14536                       # Number of read requests responded to by this memory
system.mem_ctrls.num_writes::writebacks            71                       # Number of write requests responded to by this memory
system.mem_ctrls.num_writes::total                 71                       # Number of write requests responded to by this memory
system.mem_ctrls.bw_read::cpu0.inst             21066                       # Total read bandwidth from this memory (bytes/s)
system.mem_ctrls.bw_read::cpu0.data             63197                       # Total read bandwidth from this memory (bytes/s)
system.mem_ctrls.bw_read::cpu1.inst             21066                       # Total read bandwidth from this memory (bytes/s)
system.mem_ctrls.bw_read::cpu1.data             63197                       # Total read bandwidth from this memory (bytes/s)
system.mem_ctrls.bw_read::cpu2.inst             21066                       # Total read bandwidth from this memory (bytes/s)
system.mem_ctrls.bw_read::cpu2.data             63197                       # Total read bandwidth from this memory (bytes/s)
system.mem_ctrls.bw_read::cpu3.inst             21066                       # Total read bandwidth from this memory (bytes/s)
system.mem_ctrls.bw_read::cpu3.data             63197                       # Total read bandwidth from this memory (bytes/s)
system.mem_ctrls.bw_read::switch_cpus0.inst      4065648                       # Total read bandwidth from this memory (bytes/s)
system.mem_ctrls.bw_read::switch_cpus0.data     72465437                       # Total read bandwidth from this memory (bytes/s)
system.mem_ctrls.bw_read::switch_cpus1.inst      4065648                       # Total read bandwidth from this memory (bytes/s)
system.mem_ctrls.bw_read::switch_cpus1.data     72402240                       # Total read bandwidth from this memory (bytes/s)
system.mem_ctrls.bw_read::switch_cpus2.inst      4065648                       # Total read bandwidth from this memory (bytes/s)
system.mem_ctrls.bw_read::switch_cpus2.data     72275847                       # Total read bandwidth from this memory (bytes/s)
system.mem_ctrls.bw_read::switch_cpus3.inst      4065648                       # Total read bandwidth from this memory (bytes/s)
system.mem_ctrls.bw_read::switch_cpus3.data     72465437                       # Total read bandwidth from this memory (bytes/s)
system.mem_ctrls.bw_read::total             306208601                       # Total read bandwidth from this memory (bytes/s)
system.mem_ctrls.bw_inst_read::cpu0.inst        21066                       # Instruction read bandwidth from this memory (bytes/s)
system.mem_ctrls.bw_inst_read::cpu1.inst        21066                       # Instruction read bandwidth from this memory (bytes/s)
system.mem_ctrls.bw_inst_read::cpu2.inst        21066                       # Instruction read bandwidth from this memory (bytes/s)
system.mem_ctrls.bw_inst_read::cpu3.inst        21066                       # Instruction read bandwidth from this memory (bytes/s)
system.mem_ctrls.bw_inst_read::switch_cpus0.inst      4065648                       # Instruction read bandwidth from this memory (bytes/s)
system.mem_ctrls.bw_inst_read::switch_cpus1.inst      4065648                       # Instruction read bandwidth from this memory (bytes/s)
system.mem_ctrls.bw_inst_read::switch_cpus2.inst      4065648                       # Instruction read bandwidth from this memory (bytes/s)
system.mem_ctrls.bw_inst_read::switch_cpus3.inst      4065648                       # Instruction read bandwidth from this memory (bytes/s)
system.mem_ctrls.bw_inst_read::total         16346854                       # Instruction read bandwidth from this memory (bytes/s)
system.mem_ctrls.bw_write::writebacks         1495653                       # Write bandwidth from this memory (bytes/s)
system.mem_ctrls.bw_write::total              1495653                       # Write bandwidth from this memory (bytes/s)
system.mem_ctrls.bw_total::writebacks         1495653                       # Total bandwidth to/from this memory (bytes/s)
system.mem_ctrls.bw_total::cpu0.inst            21066                       # Total bandwidth to/from this memory (bytes/s)
system.mem_ctrls.bw_total::cpu0.data            63197                       # Total bandwidth to/from this memory (bytes/s)
system.mem_ctrls.bw_total::cpu1.inst            21066                       # Total bandwidth to/from this memory (bytes/s)
system.mem_ctrls.bw_total::cpu1.data            63197                       # Total bandwidth to/from this memory (bytes/s)
system.mem_ctrls.bw_total::cpu2.inst            21066                       # Total bandwidth to/from this memory (bytes/s)
system.mem_ctrls.bw_total::cpu2.data            63197                       # Total bandwidth to/from this memory (bytes/s)
system.mem_ctrls.bw_total::cpu3.inst            21066                       # Total bandwidth to/from this memory (bytes/s)
system.mem_ctrls.bw_total::cpu3.data            63197                       # Total bandwidth to/from this memory (bytes/s)
system.mem_ctrls.bw_total::switch_cpus0.inst      4065648                       # Total bandwidth to/from this memory (bytes/s)
system.mem_ctrls.bw_total::switch_cpus0.data     72465437                       # Total bandwidth to/from this memory (bytes/s)
system.mem_ctrls.bw_total::switch_cpus1.inst      4065648                       # Total bandwidth to/from this memory (bytes/s)
system.mem_ctrls.bw_total::switch_cpus1.data     72402240                       # Total bandwidth to/from this memory (bytes/s)
system.mem_ctrls.bw_total::switch_cpus2.inst      4065648                       # Total bandwidth to/from this memory (bytes/s)
system.mem_ctrls.bw_total::switch_cpus2.data     72275847                       # Total bandwidth to/from this memory (bytes/s)
system.mem_ctrls.bw_total::switch_cpus3.inst      4065648                       # Total bandwidth to/from this memory (bytes/s)
system.mem_ctrls.bw_total::switch_cpus3.data     72465437                       # Total bandwidth to/from this memory (bytes/s)
system.mem_ctrls.bw_total::total            307704254                       # Total bandwidth to/from this memory (bytes/s)
system.mem_ctrls.readReqs                       14520                       # Number of read requests accepted
system.mem_ctrls.writeReqs                         71                       # Number of write requests accepted
system.mem_ctrls.readBursts                     14520                       # Number of DRAM read bursts, including those serviced by the write queue
system.mem_ctrls.writeBursts                       71                       # Number of DRAM write bursts, including those merged in the write queue
system.mem_ctrls.bytesReadDRAM                 929280                       # Total number of bytes read from DRAM
system.mem_ctrls.bytesReadWrQ                       0                       # Total number of bytes read from write queue
system.mem_ctrls.bytesWritten                    3328                       # Total number of bytes written to DRAM
system.mem_ctrls.bytesReadSys                  929280                       # Total read bytes from the system interface side
system.mem_ctrls.bytesWrittenSys                 4544                       # Total written bytes from the system interface side
system.mem_ctrls.servicedByWrQ                      0                       # Number of DRAM read bursts serviced by the write queue
system.mem_ctrls.mergedWrBursts                     0                       # Number of DRAM write bursts merged with an existing one
system.mem_ctrls.neitherReadNorWriteReqs            0                       # Number of requests that are neither read nor write
system.mem_ctrls.perBankRdBursts::0               873                       # Per bank write bursts
system.mem_ctrls.perBankRdBursts::1               744                       # Per bank write bursts
system.mem_ctrls.perBankRdBursts::2              1026                       # Per bank write bursts
system.mem_ctrls.perBankRdBursts::3               871                       # Per bank write bursts
system.mem_ctrls.perBankRdBursts::4               857                       # Per bank write bursts
system.mem_ctrls.perBankRdBursts::5               958                       # Per bank write bursts
system.mem_ctrls.perBankRdBursts::6               995                       # Per bank write bursts
system.mem_ctrls.perBankRdBursts::7               993                       # Per bank write bursts
system.mem_ctrls.perBankRdBursts::8               868                       # Per bank write bursts
system.mem_ctrls.perBankRdBursts::9               961                       # Per bank write bursts
system.mem_ctrls.perBankRdBursts::10              955                       # Per bank write bursts
system.mem_ctrls.perBankRdBursts::11              886                       # Per bank write bursts
system.mem_ctrls.perBankRdBursts::12              973                       # Per bank write bursts
system.mem_ctrls.perBankRdBursts::13              989                       # Per bank write bursts
system.mem_ctrls.perBankRdBursts::14              712                       # Per bank write bursts
system.mem_ctrls.perBankRdBursts::15              859                       # Per bank write bursts
system.mem_ctrls.perBankWrBursts::0                 4                       # Per bank write bursts
system.mem_ctrls.perBankWrBursts::1                 0                       # Per bank write bursts
system.mem_ctrls.perBankWrBursts::2                21                       # Per bank write bursts
system.mem_ctrls.perBankWrBursts::3                 2                       # Per bank write bursts
system.mem_ctrls.perBankWrBursts::4                 0                       # Per bank write bursts
system.mem_ctrls.perBankWrBursts::5                 0                       # Per bank write bursts
system.mem_ctrls.perBankWrBursts::6                 0                       # Per bank write bursts
system.mem_ctrls.perBankWrBursts::7                 0                       # Per bank write bursts
system.mem_ctrls.perBankWrBursts::8                 0                       # Per bank write bursts
system.mem_ctrls.perBankWrBursts::9                 0                       # Per bank write bursts
system.mem_ctrls.perBankWrBursts::10                0                       # Per bank write bursts
system.mem_ctrls.perBankWrBursts::11                0                       # Per bank write bursts
system.mem_ctrls.perBankWrBursts::12                8                       # Per bank write bursts
system.mem_ctrls.perBankWrBursts::13                0                       # Per bank write bursts
system.mem_ctrls.perBankWrBursts::14                0                       # Per bank write bursts
system.mem_ctrls.perBankWrBursts::15               17                       # Per bank write bursts
system.mem_ctrls.numRdRetry                         0                       # Number of times read queue was full causing retry
system.mem_ctrls.numWrRetry                         0                       # Number of times write queue was full causing retry
system.mem_ctrls.totGap                    3037856038                       # Total gap between requests
system.mem_ctrls.readPktSize::0                     0                       # Read request sizes (log2)
system.mem_ctrls.readPktSize::1                     0                       # Read request sizes (log2)
system.mem_ctrls.readPktSize::2                     0                       # Read request sizes (log2)
system.mem_ctrls.readPktSize::3                     0                       # Read request sizes (log2)
system.mem_ctrls.readPktSize::4                     0                       # Read request sizes (log2)
system.mem_ctrls.readPktSize::5                     0                       # Read request sizes (log2)
system.mem_ctrls.readPktSize::6                 14520                       # Read request sizes (log2)
system.mem_ctrls.writePktSize::0                    0                       # Write request sizes (log2)
system.mem_ctrls.writePktSize::1                    0                       # Write request sizes (log2)
system.mem_ctrls.writePktSize::2                    0                       # Write request sizes (log2)
system.mem_ctrls.writePktSize::3                    0                       # Write request sizes (log2)
system.mem_ctrls.writePktSize::4                    0                       # Write request sizes (log2)
system.mem_ctrls.writePktSize::5                    0                       # Write request sizes (log2)
system.mem_ctrls.writePktSize::6                   71                       # Write request sizes (log2)
system.mem_ctrls.rdQLenPdf::0                   10042                       # What read queue length does an incoming req see
system.mem_ctrls.rdQLenPdf::1                    3311                       # What read queue length does an incoming req see
system.mem_ctrls.rdQLenPdf::2                     738                       # What read queue length does an incoming req see
system.mem_ctrls.rdQLenPdf::3                     279                       # What read queue length does an incoming req see
system.mem_ctrls.rdQLenPdf::4                      93                       # What read queue length does an incoming req see
system.mem_ctrls.rdQLenPdf::5                      39                       # What read queue length does an incoming req see
system.mem_ctrls.rdQLenPdf::6                      11                       # What read queue length does an incoming req see
system.mem_ctrls.rdQLenPdf::7                       6                       # What read queue length does an incoming req see
system.mem_ctrls.rdQLenPdf::8                       1                       # What read queue length does an incoming req see
system.mem_ctrls.rdQLenPdf::9                       0                       # What read queue length does an incoming req see
system.mem_ctrls.rdQLenPdf::10                      0                       # What read queue length does an incoming req see
system.mem_ctrls.rdQLenPdf::11                      0                       # What read queue length does an incoming req see
system.mem_ctrls.rdQLenPdf::12                      0                       # What read queue length does an incoming req see
system.mem_ctrls.rdQLenPdf::13                      0                       # What read queue length does an incoming req see
system.mem_ctrls.rdQLenPdf::14                      0                       # What read queue length does an incoming req see
system.mem_ctrls.rdQLenPdf::15                      0                       # What read queue length does an incoming req see
system.mem_ctrls.rdQLenPdf::16                      0                       # What read queue length does an incoming req see
system.mem_ctrls.rdQLenPdf::17                      0                       # What read queue length does an incoming req see
system.mem_ctrls.rdQLenPdf::18                      0                       # What read queue length does an incoming req see
system.mem_ctrls.rdQLenPdf::19                      0                       # What read queue length does an incoming req see
system.mem_ctrls.rdQLenPdf::20                      0                       # What read queue length does an incoming req see
system.mem_ctrls.rdQLenPdf::21                      0                       # What read queue length does an incoming req see
system.mem_ctrls.rdQLenPdf::22                      0                       # What read queue length does an incoming req see
system.mem_ctrls.rdQLenPdf::23                      0                       # What read queue length does an incoming req see
system.mem_ctrls.rdQLenPdf::24                      0                       # What read queue length does an incoming req see
system.mem_ctrls.rdQLenPdf::25                      0                       # What read queue length does an incoming req see
system.mem_ctrls.rdQLenPdf::26                      0                       # What read queue length does an incoming req see
system.mem_ctrls.rdQLenPdf::27                      0                       # What read queue length does an incoming req see
system.mem_ctrls.rdQLenPdf::28                      0                       # What read queue length does an incoming req see
system.mem_ctrls.rdQLenPdf::29                      0                       # What read queue length does an incoming req see
system.mem_ctrls.rdQLenPdf::30                      0                       # What read queue length does an incoming req see
system.mem_ctrls.rdQLenPdf::31                      0                       # What read queue length does an incoming req see
system.mem_ctrls.wrQLenPdf::0                       1                       # What write queue length does an incoming req see
system.mem_ctrls.wrQLenPdf::1                       1                       # What write queue length does an incoming req see
system.mem_ctrls.wrQLenPdf::2                       1                       # What write queue length does an incoming req see
system.mem_ctrls.wrQLenPdf::3                       1                       # What write queue length does an incoming req see
system.mem_ctrls.wrQLenPdf::4                       1                       # What write queue length does an incoming req see
system.mem_ctrls.wrQLenPdf::5                       1                       # What write queue length does an incoming req see
system.mem_ctrls.wrQLenPdf::6                       1                       # What write queue length does an incoming req see
system.mem_ctrls.wrQLenPdf::7                       1                       # What write queue length does an incoming req see
system.mem_ctrls.wrQLenPdf::8                       1                       # What write queue length does an incoming req see
system.mem_ctrls.wrQLenPdf::9                       1                       # What write queue length does an incoming req see
system.mem_ctrls.wrQLenPdf::10                      1                       # What write queue length does an incoming req see
system.mem_ctrls.wrQLenPdf::11                      1                       # What write queue length does an incoming req see
system.mem_ctrls.wrQLenPdf::12                      1                       # What write queue length does an incoming req see
system.mem_ctrls.wrQLenPdf::13                      1                       # What write queue length does an incoming req see
system.mem_ctrls.wrQLenPdf::14                      1                       # What write queue length does an incoming req see
system.mem_ctrls.wrQLenPdf::15                      3                       # What write queue length does an incoming req see
system.mem_ctrls.wrQLenPdf::16                      3                       # What write queue length does an incoming req see
system.mem_ctrls.wrQLenPdf::17                      4                       # What write queue length does an incoming req see
system.mem_ctrls.wrQLenPdf::18                      4                       # What write queue length does an incoming req see
system.mem_ctrls.wrQLenPdf::19                      3                       # What write queue length does an incoming req see
system.mem_ctrls.wrQLenPdf::20                      3                       # What write queue length does an incoming req see
system.mem_ctrls.wrQLenPdf::21                      3                       # What write queue length does an incoming req see
system.mem_ctrls.wrQLenPdf::22                      3                       # What write queue length does an incoming req see
system.mem_ctrls.wrQLenPdf::23                      3                       # What write queue length does an incoming req see
system.mem_ctrls.wrQLenPdf::24                      3                       # What write queue length does an incoming req see
system.mem_ctrls.wrQLenPdf::25                      3                       # What write queue length does an incoming req see
system.mem_ctrls.wrQLenPdf::26                      3                       # What write queue length does an incoming req see
system.mem_ctrls.wrQLenPdf::27                      3                       # What write queue length does an incoming req see
system.mem_ctrls.wrQLenPdf::28                      3                       # What write queue length does an incoming req see
system.mem_ctrls.wrQLenPdf::29                      3                       # What write queue length does an incoming req see
system.mem_ctrls.wrQLenPdf::30                      3                       # What write queue length does an incoming req see
system.mem_ctrls.wrQLenPdf::31                      3                       # What write queue length does an incoming req see
system.mem_ctrls.wrQLenPdf::32                      3                       # What write queue length does an incoming req see
system.mem_ctrls.wrQLenPdf::33                      0                       # What write queue length does an incoming req see
system.mem_ctrls.wrQLenPdf::34                      0                       # What write queue length does an incoming req see
system.mem_ctrls.wrQLenPdf::35                      0                       # What write queue length does an incoming req see
system.mem_ctrls.wrQLenPdf::36                      0                       # What write queue length does an incoming req see
system.mem_ctrls.wrQLenPdf::37                      0                       # What write queue length does an incoming req see
system.mem_ctrls.wrQLenPdf::38                      0                       # What write queue length does an incoming req see
system.mem_ctrls.wrQLenPdf::39                      0                       # What write queue length does an incoming req see
system.mem_ctrls.wrQLenPdf::40                      0                       # What write queue length does an incoming req see
system.mem_ctrls.wrQLenPdf::41                      0                       # What write queue length does an incoming req see
system.mem_ctrls.wrQLenPdf::42                      0                       # What write queue length does an incoming req see
system.mem_ctrls.wrQLenPdf::43                      0                       # What write queue length does an incoming req see
system.mem_ctrls.wrQLenPdf::44                      0                       # What write queue length does an incoming req see
system.mem_ctrls.wrQLenPdf::45                      0                       # What write queue length does an incoming req see
system.mem_ctrls.wrQLenPdf::46                      0                       # What write queue length does an incoming req see
system.mem_ctrls.wrQLenPdf::47                      0                       # What write queue length does an incoming req see
system.mem_ctrls.wrQLenPdf::48                      0                       # What write queue length does an incoming req see
system.mem_ctrls.wrQLenPdf::49                      0                       # What write queue length does an incoming req see
system.mem_ctrls.wrQLenPdf::50                      0                       # What write queue length does an incoming req see
system.mem_ctrls.wrQLenPdf::51                      0                       # What write queue length does an incoming req see
system.mem_ctrls.wrQLenPdf::52                      0                       # What write queue length does an incoming req see
system.mem_ctrls.wrQLenPdf::53                      0                       # What write queue length does an incoming req see
system.mem_ctrls.wrQLenPdf::54                      0                       # What write queue length does an incoming req see
system.mem_ctrls.wrQLenPdf::55                      0                       # What write queue length does an incoming req see
system.mem_ctrls.wrQLenPdf::56                      0                       # What write queue length does an incoming req see
system.mem_ctrls.wrQLenPdf::57                      0                       # What write queue length does an incoming req see
system.mem_ctrls.wrQLenPdf::58                      0                       # What write queue length does an incoming req see
system.mem_ctrls.wrQLenPdf::59                      0                       # What write queue length does an incoming req see
system.mem_ctrls.wrQLenPdf::60                      0                       # What write queue length does an incoming req see
system.mem_ctrls.wrQLenPdf::61                      0                       # What write queue length does an incoming req see
system.mem_ctrls.wrQLenPdf::62                      0                       # What write queue length does an incoming req see
system.mem_ctrls.wrQLenPdf::63                      0                       # What write queue length does an incoming req see
system.mem_ctrls.bytesPerActivate::samples        13424                       # Bytes accessed per row activation
system.mem_ctrls.bytesPerActivate::mean     69.454112                       # Bytes accessed per row activation
system.mem_ctrls.bytesPerActivate::gmean    65.991711                       # Bytes accessed per row activation
system.mem_ctrls.bytesPerActivate::stdev    54.204416                       # Bytes accessed per row activation
system.mem_ctrls.bytesPerActivate::0-127        13067     97.34%     97.34% # Bytes accessed per row activation
system.mem_ctrls.bytesPerActivate::128-255          277      2.06%     99.40% # Bytes accessed per row activation
system.mem_ctrls.bytesPerActivate::256-383           18      0.13%     99.54% # Bytes accessed per row activation
system.mem_ctrls.bytesPerActivate::384-511           10      0.07%     99.61% # Bytes accessed per row activation
system.mem_ctrls.bytesPerActivate::512-639            9      0.07%     99.68% # Bytes accessed per row activation
system.mem_ctrls.bytesPerActivate::640-767            8      0.06%     99.74% # Bytes accessed per row activation
system.mem_ctrls.bytesPerActivate::768-895            4      0.03%     99.77% # Bytes accessed per row activation
system.mem_ctrls.bytesPerActivate::896-1023            2      0.01%     99.78% # Bytes accessed per row activation
system.mem_ctrls.bytesPerActivate::1024-1151           29      0.22%    100.00% # Bytes accessed per row activation
system.mem_ctrls.bytesPerActivate::total        13424                       # Bytes accessed per row activation
system.mem_ctrls.rdPerTurnAround::samples            3                       # Reads before turning the bus around for writes
system.mem_ctrls.rdPerTurnAround::mean    4797.666667                       # Reads before turning the bus around for writes
system.mem_ctrls.rdPerTurnAround::gmean   1256.180152                       # Reads before turning the bus around for writes
system.mem_ctrls.rdPerTurnAround::stdev   7646.507068                       # Reads before turning the bus around for writes
system.mem_ctrls.rdPerTurnAround::0-511             2     66.67%     66.67% # Reads before turning the bus around for writes
system.mem_ctrls.rdPerTurnAround::13312-13823            1     33.33%    100.00% # Reads before turning the bus around for writes
system.mem_ctrls.rdPerTurnAround::total             3                       # Reads before turning the bus around for writes
system.mem_ctrls.wrPerTurnAround::samples            3                       # Writes before turning the bus around for reads
system.mem_ctrls.wrPerTurnAround::mean      17.333333                       # Writes before turning the bus around for reads
system.mem_ctrls.wrPerTurnAround::gmean     17.306995                       # Writes before turning the bus around for reads
system.mem_ctrls.wrPerTurnAround::stdev      1.154701                       # Writes before turning the bus around for reads
system.mem_ctrls.wrPerTurnAround::16                1     33.33%     33.33% # Writes before turning the bus around for reads
system.mem_ctrls.wrPerTurnAround::18                2     66.67%    100.00% # Writes before turning the bus around for reads
system.mem_ctrls.wrPerTurnAround::total             3                       # Writes before turning the bus around for reads
system.mem_ctrls.totQLat                    459426662                       # Total ticks spent queuing
system.mem_ctrls.totMemAccLat               731676662                       # Total ticks spent from burst creation until serviced by the DRAM
system.mem_ctrls.totBusLat                   72600000                       # Total ticks spent in databus transfers
system.mem_ctrls.avgQLat                     31640.95                       # Average queueing delay per DRAM burst
system.mem_ctrls.avgBusLat                    5000.00                       # Average bus latency per DRAM burst
system.mem_ctrls.avgMemAccLat                50390.95                       # Average memory access latency per DRAM burst
system.mem_ctrls.avgRdBW                       305.87                       # Average DRAM read bandwidth in MiByte/s
system.mem_ctrls.avgWrBW                         1.10                       # Average achieved write bandwidth in MiByte/s
system.mem_ctrls.avgRdBWSys                    305.87                       # Average system read bandwidth in MiByte/s
system.mem_ctrls.avgWrBWSys                      1.50                       # Average system write bandwidth in MiByte/s
system.mem_ctrls.peakBW                      12800.00                       # Theoretical peak bandwidth in MiByte/s
system.mem_ctrls.busUtil                         2.40                       # Data bus utilization in percentage
system.mem_ctrls.busUtilRead                     2.39                       # Data bus utilization in percentage for reads
system.mem_ctrls.busUtilWrite                    0.01                       # Data bus utilization in percentage for writes
system.mem_ctrls.avgRdQLen                       1.26                       # Average read queue length when enqueuing
system.mem_ctrls.avgWrQLen                       4.66                       # Average write queue length when enqueuing
system.mem_ctrls.readRowHits                     1101                       # Number of row buffer hits during reads
system.mem_ctrls.writeRowHits                      43                       # Number of row buffer hits during writes
system.mem_ctrls.readRowHitRate                  7.58                       # Row buffer hit rate for reads
system.mem_ctrls.writeRowHitRate                60.56                       # Row buffer hit rate for writes
system.mem_ctrls.avgGap                     208200.67                       # Average gap between requests
system.mem_ctrls.pageHitRate                     7.84                       # Row buffer hit rate, read and write combined
system.mem_ctrls_0.actEnergy                 47809440                       # Energy for activate commands per rank (pJ)
system.mem_ctrls_0.preEnergy                 25399935                       # Energy for precharge commands per rank (pJ)
system.mem_ctrls_0.readEnergy                52243380                       # Energy for read commands per rank (pJ)
system.mem_ctrls_0.writeEnergy                 140940                       # Energy for write commands per rank (pJ)
system.mem_ctrls_0.refreshEnergy         239709600.000000                       # Energy for refresh commands per rank (pJ)
system.mem_ctrls_0.actBackEnergy            181126620                       # Energy for active background per rank (pJ)
system.mem_ctrls_0.preBackEnergy              5179680                       # Energy for precharge background per rank (pJ)
system.mem_ctrls_0.actPowerDownEnergy      1124054820                       # Energy for active power-down per rank (pJ)
system.mem_ctrls_0.prePowerDownEnergy        62361120                       # Energy for precharge power-down per rank (pJ)
system.mem_ctrls_0.selfRefreshEnergy                0                       # Energy for self refresh per rank (pJ)
system.mem_ctrls_0.totalEnergy             1738025535                       # Total energy per rank (pJ)
system.mem_ctrls_0.averagePower            572.071296                       # Core power per rank (mW)
system.mem_ctrls_0.totalIdleTime           2627164218                       # Total Idle time Per DRAM Rank
system.mem_ctrls_0.memoryStateTime::IDLE      2280083                       # Time in different power states
system.mem_ctrls_0.memoryStateTime::REF     101400000                       # Time in different power states
system.mem_ctrls_0.memoryStateTime::SREF            0                       # Time in different power states
system.mem_ctrls_0.memoryStateTime::PRE_PDN    162489323                       # Time in different power states
system.mem_ctrls_0.memoryStateTime::ACT     307136070                       # Time in different power states
system.mem_ctrls_0.memoryStateTime::ACT_PDN   2464822565                       # Time in different power states
system.mem_ctrls_1.actEnergy                 48066480                       # Energy for activate commands per rank (pJ)
system.mem_ctrls_1.preEnergy                 25544145                       # Energy for precharge commands per rank (pJ)
system.mem_ctrls_1.readEnergy                51429420                       # Energy for read commands per rank (pJ)
system.mem_ctrls_1.writeEnergy                 130500                       # Energy for write commands per rank (pJ)
system.mem_ctrls_1.refreshEnergy         239709600.000000                       # Energy for refresh commands per rank (pJ)
system.mem_ctrls_1.actBackEnergy            179579070                       # Energy for active background per rank (pJ)
system.mem_ctrls_1.preBackEnergy              5107680                       # Energy for precharge background per rank (pJ)
system.mem_ctrls_1.actPowerDownEnergy      1109375610                       # Energy for active power-down per rank (pJ)
system.mem_ctrls_1.prePowerDownEnergy        76097760                       # Energy for precharge power-down per rank (pJ)
system.mem_ctrls_1.selfRefreshEnergy                0                       # Energy for self refresh per rank (pJ)
system.mem_ctrls_1.totalEnergy             1735040265                       # Total energy per rank (pJ)
system.mem_ctrls_1.averagePower            571.088694                       # Core power per rank (mW)
system.mem_ctrls_1.totalIdleTime           2629847466                       # Total Idle time Per DRAM Rank
system.mem_ctrls_1.memoryStateTime::IDLE      2277000                       # Time in different power states
system.mem_ctrls_1.memoryStateTime::REF     101400000                       # Time in different power states
system.mem_ctrls_1.memoryStateTime::SREF            0                       # Time in different power states
system.mem_ctrls_1.memoryStateTime::PRE_PDN    198256392                       # Time in different power states
system.mem_ctrls_1.memoryStateTime::ACT     303440034                       # Time in different power states
system.mem_ctrls_1.memoryStateTime::ACT_PDN   2432754615                       # Time in different power states
system.pwrStateResidencyTicks::UNDEFINED 5195037301041                       # Cumulative time (in ticks) in various power states
system.cpu_voltage_domain.voltage                   1                       # Voltage in Volts
system.cpu_clk_domain.clock                       833                       # Clock period in ticks
system.cpu0.dtb.walker.pwrStateResidencyTicks::UNDEFINED 5195037301041                       # Cumulative time (in ticks) in various power states
system.cpu0.apic_clk_domain.clock               13328                       # Clock period in ticks
system.cpu0.interrupts.pwrStateResidencyTicks::UNDEFINED 5195037301041                       # Cumulative time (in ticks) in various power states
system.cpu0.itb.walker.pwrStateResidencyTicks::UNDEFINED 5195037301041                       # Cumulative time (in ticks) in various power states
system.cpu0.workload.num_syscalls                   0                       # Number of system calls
system.cpu0.pwrStateResidencyTicks::ON     3038138041                       # Cumulative time (in ticks) in various power states
system.cpu0.numCycles                              11                       # number of cpu cycles simulated
system.cpu0.numWorkItemsStarted                     0                       # number of work items this cpu started
system.cpu0.numWorkItemsCompleted                   0                       # number of work items this cpu completed
system.cpu0.committedInsts                          4                       # Number of instructions committed
system.cpu0.committedOps                            7                       # Number of ops (including micro ops) committed
system.cpu0.num_int_alu_accesses                    6                       # Number of integer alu accesses
system.cpu0.num_fp_alu_accesses                     3                       # Number of float alu accesses
system.cpu0.num_func_calls                          0                       # number of times a function call or return occured
system.cpu0.num_conditional_control_insts            0                       # number of instructions that are conditional controls
system.cpu0.num_int_insts                           6                       # number of integer instructions
system.cpu0.num_fp_insts                            3                       # number of float instructions
system.cpu0.num_int_register_reads                 15                       # number of times the integer registers were read
system.cpu0.num_int_register_writes                 3                       # number of times the integer registers were written
system.cpu0.num_fp_register_reads                   3                       # number of times the floating registers were read
system.cpu0.num_fp_register_writes                  3                       # number of times the floating registers were written
system.cpu0.num_cc_register_writes                  2                       # number of times the CC registers were written
system.cpu0.num_mem_refs                            4                       # number of memory refs
system.cpu0.num_load_insts                          3                       # Number of load instructions
system.cpu0.num_store_insts                         1                       # Number of store instructions
system.cpu0.num_idle_cycles                         0                       # Number of idle cycles
system.cpu0.num_busy_cycles                        11                       # Number of busy cycles
system.cpu0.not_idle_fraction                       1                       # Percentage of non-idle cycles
system.cpu0.idle_fraction                           0                       # Percentage of idle cycles
system.cpu0.op_class::No_OpClass                    0      0.00%      0.00% # Class of executed instruction
system.cpu0.op_class::IntAlu                        2     28.57%     28.57% # Class of executed instruction
system.cpu0.op_class::IntMult                       0      0.00%     28.57% # Class of executed instruction
system.cpu0.op_class::IntDiv                        0      0.00%     28.57% # Class of executed instruction
system.cpu0.op_class::FloatAdd                      1     14.29%     42.86% # Class of executed instruction
system.cpu0.op_class::FloatCmp                      0      0.00%     42.86% # Class of executed instruction
system.cpu0.op_class::FloatCvt                      0      0.00%     42.86% # Class of executed instruction
system.cpu0.op_class::FloatMult                     0      0.00%     42.86% # Class of executed instruction
system.cpu0.op_class::FloatMultAcc                  0      0.00%     42.86% # Class of executed instruction
system.cpu0.op_class::FloatDiv                      0      0.00%     42.86% # Class of executed instruction
system.cpu0.op_class::FloatMisc                     0      0.00%     42.86% # Class of executed instruction
system.cpu0.op_class::FloatSqrt                     0      0.00%     42.86% # Class of executed instruction
system.cpu0.op_class::SimdAdd                       0      0.00%     42.86% # Class of executed instruction
system.cpu0.op_class::SimdAddAcc                    0      0.00%     42.86% # Class of executed instruction
system.cpu0.op_class::SimdAlu                       0      0.00%     42.86% # Class of executed instruction
system.cpu0.op_class::SimdCmp                       0      0.00%     42.86% # Class of executed instruction
system.cpu0.op_class::SimdCvt                       0      0.00%     42.86% # Class of executed instruction
system.cpu0.op_class::SimdMisc                      0      0.00%     42.86% # Class of executed instruction
system.cpu0.op_class::SimdMult                      0      0.00%     42.86% # Class of executed instruction
system.cpu0.op_class::SimdMultAcc                   0      0.00%     42.86% # Class of executed instruction
system.cpu0.op_class::SimdShift                     0      0.00%     42.86% # Class of executed instruction
system.cpu0.op_class::SimdShiftAcc                  0      0.00%     42.86% # Class of executed instruction
system.cpu0.op_class::SimdSqrt                      0      0.00%     42.86% # Class of executed instruction
system.cpu0.op_class::SimdFloatAdd                  0      0.00%     42.86% # Class of executed instruction
system.cpu0.op_class::SimdFloatAlu                  0      0.00%     42.86% # Class of executed instruction
system.cpu0.op_class::SimdFloatCmp                  0      0.00%     42.86% # Class of executed instruction
system.cpu0.op_class::SimdFloatCvt                  0      0.00%     42.86% # Class of executed instruction
system.cpu0.op_class::SimdFloatDiv                  0      0.00%     42.86% # Class of executed instruction
system.cpu0.op_class::SimdFloatMisc                 0      0.00%     42.86% # Class of executed instruction
system.cpu0.op_class::SimdFloatMult                 0      0.00%     42.86% # Class of executed instruction
system.cpu0.op_class::SimdFloatMultAcc              0      0.00%     42.86% # Class of executed instruction
system.cpu0.op_class::SimdFloatSqrt                 0      0.00%     42.86% # Class of executed instruction
system.cpu0.op_class::MemRead                       1     14.29%     57.14% # Class of executed instruction
system.cpu0.op_class::MemWrite                      1     14.29%     71.43% # Class of executed instruction
system.cpu0.op_class::FloatMemRead                  2     28.57%    100.00% # Class of executed instruction
system.cpu0.op_class::FloatMemWrite                 0      0.00%    100.00% # Class of executed instruction
system.cpu0.op_class::IprAccess                     0      0.00%    100.00% # Class of executed instruction
system.cpu0.op_class::InstPrefetch                  0      0.00%    100.00% # Class of executed instruction
system.cpu0.op_class::total                         7                       # Class of executed instruction
system.cpu0.dcache.tags.pwrStateResidencyTicks::UNDEFINED 5195037301041                       # Cumulative time (in ticks) in various power states
system.cpu0.dcache.tags.replacements            25209                       # number of replacements
system.cpu0.dcache.tags.tagsinuse          127.359305                       # Cycle average of tags in use
system.cpu0.dcache.tags.total_refs             236035                       # Total number of references to valid blocks.
system.cpu0.dcache.tags.sampled_refs            25209                       # Sample count of references to valid blocks.
system.cpu0.dcache.tags.avg_refs             9.363124                       # Average number of references to valid blocks.
system.cpu0.dcache.tags.warmup_cycle     5192072267529                       # Cycle when the warmup percentage was hit.
system.cpu0.dcache.tags.occ_blocks::cpu0.data     2.999996                       # Average occupied blocks per requestor
system.cpu0.dcache.tags.occ_blocks::switch_cpus0.data   124.359309                       # Average occupied blocks per requestor
system.cpu0.dcache.tags.occ_percent::cpu0.data     0.023437                       # Average percentage of cache occupancy
system.cpu0.dcache.tags.occ_percent::switch_cpus0.data     0.971557                       # Average percentage of cache occupancy
system.cpu0.dcache.tags.occ_percent::total     0.994995                       # Average percentage of cache occupancy
system.cpu0.dcache.tags.occ_task_id_blocks::1024          128                       # Occupied blocks per task id
system.cpu0.dcache.tags.age_task_id_blocks_1024::0           48                       # Occupied blocks per task id
system.cpu0.dcache.tags.age_task_id_blocks_1024::1           62                       # Occupied blocks per task id
system.cpu0.dcache.tags.age_task_id_blocks_1024::2            7                       # Occupied blocks per task id
system.cpu0.dcache.tags.age_task_id_blocks_1024::3           11                       # Occupied blocks per task id
system.cpu0.dcache.tags.occ_task_id_percent::1024            1                       # Percentage of cache occupancy per task id
system.cpu0.dcache.tags.tag_accesses          4318081                       # Number of tag accesses
system.cpu0.dcache.tags.data_accesses         4318081                       # Number of data accesses
system.cpu0.dcache.pwrStateResidencyTicks::UNDEFINED 5195037301041                       # Cumulative time (in ticks) in various power states
system.cpu0.dcache.ReadReq_hits::switch_cpus0.data       403628                       # number of ReadReq hits
system.cpu0.dcache.ReadReq_hits::total         403628                       # number of ReadReq hits
system.cpu0.dcache.WriteReq_hits::cpu0.data            1                       # number of WriteReq hits
system.cpu0.dcache.WriteReq_hits::switch_cpus0.data       107474                       # number of WriteReq hits
system.cpu0.dcache.WriteReq_hits::total        107475                       # number of WriteReq hits
system.cpu0.dcache.demand_hits::cpu0.data            1                       # number of demand (read+write) hits
system.cpu0.dcache.demand_hits::switch_cpus0.data       511102                       # number of demand (read+write) hits
system.cpu0.dcache.demand_hits::total          511103                       # number of demand (read+write) hits
system.cpu0.dcache.overall_hits::cpu0.data            1                       # number of overall hits
system.cpu0.dcache.overall_hits::switch_cpus0.data       511102                       # number of overall hits
system.cpu0.dcache.overall_hits::total         511103                       # number of overall hits
system.cpu0.dcache.ReadReq_misses::cpu0.data            3                       # number of ReadReq misses
system.cpu0.dcache.ReadReq_misses::switch_cpus0.data        23486                       # number of ReadReq misses
system.cpu0.dcache.ReadReq_misses::total        23489                       # number of ReadReq misses
system.cpu0.dcache.WriteReq_misses::switch_cpus0.data         2001                       # number of WriteReq misses
system.cpu0.dcache.WriteReq_misses::total         2001                       # number of WriteReq misses
system.cpu0.dcache.demand_misses::cpu0.data            3                       # number of demand (read+write) misses
system.cpu0.dcache.demand_misses::switch_cpus0.data        25487                       # number of demand (read+write) misses
system.cpu0.dcache.demand_misses::total         25490                       # number of demand (read+write) misses
system.cpu0.dcache.overall_misses::cpu0.data            3                       # number of overall misses
system.cpu0.dcache.overall_misses::switch_cpus0.data        25487                       # number of overall misses
system.cpu0.dcache.overall_misses::total        25490                       # number of overall misses
system.cpu0.dcache.ReadReq_miss_latency::switch_cpus0.data    818552448                       # number of ReadReq miss cycles
system.cpu0.dcache.ReadReq_miss_latency::total    818552448                       # number of ReadReq miss cycles
system.cpu0.dcache.WriteReq_miss_latency::switch_cpus0.data     95984924                       # number of WriteReq miss cycles
system.cpu0.dcache.WriteReq_miss_latency::total     95984924                       # number of WriteReq miss cycles
system.cpu0.dcache.demand_miss_latency::switch_cpus0.data    914537372                       # number of demand (read+write) miss cycles
system.cpu0.dcache.demand_miss_latency::total    914537372                       # number of demand (read+write) miss cycles
system.cpu0.dcache.overall_miss_latency::switch_cpus0.data    914537372                       # number of overall miss cycles
system.cpu0.dcache.overall_miss_latency::total    914537372                       # number of overall miss cycles
system.cpu0.dcache.ReadReq_accesses::cpu0.data            3                       # number of ReadReq accesses(hits+misses)
system.cpu0.dcache.ReadReq_accesses::switch_cpus0.data       427114                       # number of ReadReq accesses(hits+misses)
system.cpu0.dcache.ReadReq_accesses::total       427117                       # number of ReadReq accesses(hits+misses)
system.cpu0.dcache.WriteReq_accesses::cpu0.data            1                       # number of WriteReq accesses(hits+misses)
system.cpu0.dcache.WriteReq_accesses::switch_cpus0.data       109475                       # number of WriteReq accesses(hits+misses)
system.cpu0.dcache.WriteReq_accesses::total       109476                       # number of WriteReq accesses(hits+misses)
system.cpu0.dcache.demand_accesses::cpu0.data            4                       # number of demand (read+write) accesses
system.cpu0.dcache.demand_accesses::switch_cpus0.data       536589                       # number of demand (read+write) accesses
system.cpu0.dcache.demand_accesses::total       536593                       # number of demand (read+write) accesses
system.cpu0.dcache.overall_accesses::cpu0.data            4                       # number of overall (read+write) accesses
system.cpu0.dcache.overall_accesses::switch_cpus0.data       536589                       # number of overall (read+write) accesses
system.cpu0.dcache.overall_accesses::total       536593                       # number of overall (read+write) accesses
system.cpu0.dcache.ReadReq_miss_rate::cpu0.data            1                       # miss rate for ReadReq accesses
system.cpu0.dcache.ReadReq_miss_rate::switch_cpus0.data     0.054988                       # miss rate for ReadReq accesses
system.cpu0.dcache.ReadReq_miss_rate::total     0.054994                       # miss rate for ReadReq accesses
system.cpu0.dcache.WriteReq_miss_rate::switch_cpus0.data     0.018278                       # miss rate for WriteReq accesses
system.cpu0.dcache.WriteReq_miss_rate::total     0.018278                       # miss rate for WriteReq accesses
system.cpu0.dcache.demand_miss_rate::cpu0.data     0.750000                       # miss rate for demand accesses
system.cpu0.dcache.demand_miss_rate::switch_cpus0.data     0.047498                       # miss rate for demand accesses
system.cpu0.dcache.demand_miss_rate::total     0.047503                       # miss rate for demand accesses
system.cpu0.dcache.overall_miss_rate::cpu0.data     0.750000                       # miss rate for overall accesses
system.cpu0.dcache.overall_miss_rate::switch_cpus0.data     0.047498                       # miss rate for overall accesses
system.cpu0.dcache.overall_miss_rate::total     0.047503                       # miss rate for overall accesses
system.cpu0.dcache.ReadReq_avg_miss_latency::switch_cpus0.data 34852.782424                       # average ReadReq miss latency
system.cpu0.dcache.ReadReq_avg_miss_latency::total 34848.331049                       # average ReadReq miss latency
system.cpu0.dcache.WriteReq_avg_miss_latency::switch_cpus0.data 47968.477761                       # average WriteReq miss latency
system.cpu0.dcache.WriteReq_avg_miss_latency::total 47968.477761                       # average WriteReq miss latency
system.cpu0.dcache.demand_avg_miss_latency::switch_cpus0.data 35882.503708                       # average overall miss latency
system.cpu0.dcache.demand_avg_miss_latency::total 35878.280581                       # average overall miss latency
system.cpu0.dcache.overall_avg_miss_latency::switch_cpus0.data 35882.503708                       # average overall miss latency
system.cpu0.dcache.overall_avg_miss_latency::total 35878.280581                       # average overall miss latency
system.cpu0.dcache.blocked_cycles::no_mshrs            0                       # number of cycles access was blocked
system.cpu0.dcache.blocked_cycles::no_targets            0                       # number of cycles access was blocked
system.cpu0.dcache.blocked::no_mshrs                0                       # number of cycles access was blocked
system.cpu0.dcache.blocked::no_targets              0                       # number of cycles access was blocked
system.cpu0.dcache.avg_blocked_cycles::no_mshrs          nan                       # average number of cycles each access was blocked
system.cpu0.dcache.avg_blocked_cycles::no_targets          nan                       # average number of cycles each access was blocked
system.cpu0.dcache.writebacks::writebacks         2890                       # number of writebacks
system.cpu0.dcache.writebacks::total             2890                       # number of writebacks
system.cpu0.dcache.ReadReq_mshr_hits::switch_cpus0.data           54                       # number of ReadReq MSHR hits
system.cpu0.dcache.ReadReq_mshr_hits::total           54                       # number of ReadReq MSHR hits
system.cpu0.dcache.WriteReq_mshr_hits::switch_cpus0.data           99                       # number of WriteReq MSHR hits
system.cpu0.dcache.WriteReq_mshr_hits::total           99                       # number of WriteReq MSHR hits
system.cpu0.dcache.demand_mshr_hits::switch_cpus0.data          153                       # number of demand (read+write) MSHR hits
system.cpu0.dcache.demand_mshr_hits::total          153                       # number of demand (read+write) MSHR hits
system.cpu0.dcache.overall_mshr_hits::switch_cpus0.data          153                       # number of overall MSHR hits
system.cpu0.dcache.overall_mshr_hits::total          153                       # number of overall MSHR hits
system.cpu0.dcache.ReadReq_mshr_misses::switch_cpus0.data        23432                       # number of ReadReq MSHR misses
system.cpu0.dcache.ReadReq_mshr_misses::total        23432                       # number of ReadReq MSHR misses
system.cpu0.dcache.WriteReq_mshr_misses::switch_cpus0.data         1902                       # number of WriteReq MSHR misses
system.cpu0.dcache.WriteReq_mshr_misses::total         1902                       # number of WriteReq MSHR misses
system.cpu0.dcache.demand_mshr_misses::switch_cpus0.data        25334                       # number of demand (read+write) MSHR misses
system.cpu0.dcache.demand_mshr_misses::total        25334                       # number of demand (read+write) MSHR misses
system.cpu0.dcache.overall_mshr_misses::switch_cpus0.data        25334                       # number of overall MSHR misses
system.cpu0.dcache.overall_mshr_misses::total        25334                       # number of overall MSHR misses
system.cpu0.dcache.ReadReq_mshr_miss_latency::switch_cpus0.data    778039493                       # number of ReadReq MSHR miss cycles
system.cpu0.dcache.ReadReq_mshr_miss_latency::total    778039493                       # number of ReadReq MSHR miss cycles
system.cpu0.dcache.WriteReq_mshr_miss_latency::switch_cpus0.data     91310961                       # number of WriteReq MSHR miss cycles
system.cpu0.dcache.WriteReq_mshr_miss_latency::total     91310961                       # number of WriteReq MSHR miss cycles
system.cpu0.dcache.demand_mshr_miss_latency::switch_cpus0.data    869350454                       # number of demand (read+write) MSHR miss cycles
system.cpu0.dcache.demand_mshr_miss_latency::total    869350454                       # number of demand (read+write) MSHR miss cycles
system.cpu0.dcache.overall_mshr_miss_latency::switch_cpus0.data    869350454                       # number of overall MSHR miss cycles
system.cpu0.dcache.overall_mshr_miss_latency::total    869350454                       # number of overall MSHR miss cycles
system.cpu0.dcache.ReadReq_mshr_miss_rate::switch_cpus0.data     0.054861                       # mshr miss rate for ReadReq accesses
system.cpu0.dcache.ReadReq_mshr_miss_rate::total     0.054861                       # mshr miss rate for ReadReq accesses
system.cpu0.dcache.WriteReq_mshr_miss_rate::switch_cpus0.data     0.017374                       # mshr miss rate for WriteReq accesses
system.cpu0.dcache.WriteReq_mshr_miss_rate::total     0.017374                       # mshr miss rate for WriteReq accesses
system.cpu0.dcache.demand_mshr_miss_rate::switch_cpus0.data     0.047213                       # mshr miss rate for demand accesses
system.cpu0.dcache.demand_mshr_miss_rate::total     0.047213                       # mshr miss rate for demand accesses
system.cpu0.dcache.overall_mshr_miss_rate::switch_cpus0.data     0.047213                       # mshr miss rate for overall accesses
system.cpu0.dcache.overall_mshr_miss_rate::total     0.047213                       # mshr miss rate for overall accesses
system.cpu0.dcache.ReadReq_avg_mshr_miss_latency::switch_cpus0.data 33204.143607                       # average ReadReq mshr miss latency
system.cpu0.dcache.ReadReq_avg_mshr_miss_latency::total 33204.143607                       # average ReadReq mshr miss latency
system.cpu0.dcache.WriteReq_avg_mshr_miss_latency::switch_cpus0.data 48007.865931                       # average WriteReq mshr miss latency
system.cpu0.dcache.WriteReq_avg_mshr_miss_latency::total 48007.865931                       # average WriteReq mshr miss latency
system.cpu0.dcache.demand_avg_mshr_miss_latency::switch_cpus0.data 34315.562248                       # average overall mshr miss latency
system.cpu0.dcache.demand_avg_mshr_miss_latency::total 34315.562248                       # average overall mshr miss latency
system.cpu0.dcache.overall_avg_mshr_miss_latency::switch_cpus0.data 34315.562248                       # average overall mshr miss latency
system.cpu0.dcache.overall_avg_mshr_miss_latency::total 34315.562248                       # average overall mshr miss latency
system.cpu0.dtb_walker_cache.tags.pwrStateResidencyTicks::UNDEFINED 5195037301041                       # Cumulative time (in ticks) in various power states
system.cpu0.dtb_walker_cache.tags.replacements            0                       # number of replacements
system.cpu0.dtb_walker_cache.tags.tagsinuse            0                       # Cycle average of tags in use
system.cpu0.dtb_walker_cache.tags.total_refs            0                       # Total number of references to valid blocks.
system.cpu0.dtb_walker_cache.tags.sampled_refs            0                       # Sample count of references to valid blocks.
system.cpu0.dtb_walker_cache.tags.avg_refs          nan                       # Average number of references to valid blocks.
system.cpu0.dtb_walker_cache.tags.warmup_cycle            0                       # Cycle when the warmup percentage was hit.
system.cpu0.dtb_walker_cache.tags.tag_accesses            0                       # Number of tag accesses
system.cpu0.dtb_walker_cache.tags.data_accesses            0                       # Number of data accesses
system.cpu0.dtb_walker_cache.pwrStateResidencyTicks::UNDEFINED 5195037301041                       # Cumulative time (in ticks) in various power states
system.cpu0.dtb_walker_cache.blocked_cycles::no_mshrs            0                       # number of cycles access was blocked
system.cpu0.dtb_walker_cache.blocked_cycles::no_targets            0                       # number of cycles access was blocked
system.cpu0.dtb_walker_cache.blocked::no_mshrs            0                       # number of cycles access was blocked
system.cpu0.dtb_walker_cache.blocked::no_targets            0                       # number of cycles access was blocked
system.cpu0.dtb_walker_cache.avg_blocked_cycles::no_mshrs          nan                       # average number of cycles each access was blocked
system.cpu0.dtb_walker_cache.avg_blocked_cycles::no_targets          nan                       # average number of cycles each access was blocked
system.cpu0.icache.tags.pwrStateResidencyTicks::UNDEFINED 5195037301041                       # Cumulative time (in ticks) in various power states
system.cpu0.icache.tags.replacements           102259                       # number of replacements
system.cpu0.icache.tags.tagsinuse          127.617629                       # Cycle average of tags in use
system.cpu0.icache.tags.total_refs                  8                       # Total number of references to valid blocks.
system.cpu0.icache.tags.sampled_refs           102259                       # Sample count of references to valid blocks.
system.cpu0.icache.tags.avg_refs             0.000078                       # Average number of references to valid blocks.
system.cpu0.icache.tags.warmup_cycle     5192016504843                       # Cycle when the warmup percentage was hit.
system.cpu0.icache.tags.occ_blocks::cpu0.inst     0.005739                       # Average occupied blocks per requestor
system.cpu0.icache.tags.occ_blocks::switch_cpus0.inst   127.611890                       # Average occupied blocks per requestor
system.cpu0.icache.tags.occ_percent::cpu0.inst     0.000045                       # Average percentage of cache occupancy
system.cpu0.icache.tags.occ_percent::switch_cpus0.inst     0.996968                       # Average percentage of cache occupancy
system.cpu0.icache.tags.occ_percent::total     0.997013                       # Average percentage of cache occupancy
system.cpu0.icache.tags.occ_task_id_blocks::1024          128                       # Occupied blocks per task id
system.cpu0.icache.tags.age_task_id_blocks_1024::0          128                       # Occupied blocks per task id
system.cpu0.icache.tags.occ_task_id_percent::1024            1                       # Percentage of cache occupancy per task id
system.cpu0.icache.tags.tag_accesses           921547                       # Number of tag accesses
system.cpu0.icache.tags.data_accesses          921547                       # Number of data accesses
system.cpu0.icache.pwrStateResidencyTicks::UNDEFINED 5195037301041                       # Cumulative time (in ticks) in various power states
system.cpu0.icache.ReadReq_hits::cpu0.inst            7                       # number of ReadReq hits
system.cpu0.icache.ReadReq_hits::switch_cpus0.inst            1                       # number of ReadReq hits
system.cpu0.icache.ReadReq_hits::total              8                       # number of ReadReq hits
system.cpu0.icache.demand_hits::cpu0.inst            7                       # number of demand (read+write) hits
system.cpu0.icache.demand_hits::switch_cpus0.inst            1                       # number of demand (read+write) hits
system.cpu0.icache.demand_hits::total               8                       # number of demand (read+write) hits
system.cpu0.icache.overall_hits::cpu0.inst            7                       # number of overall hits
system.cpu0.icache.overall_hits::switch_cpus0.inst            1                       # number of overall hits
system.cpu0.icache.overall_hits::total              8                       # number of overall hits
system.cpu0.icache.ReadReq_misses::cpu0.inst            1                       # number of ReadReq misses
system.cpu0.icache.ReadReq_misses::switch_cpus0.inst       102386                       # number of ReadReq misses
system.cpu0.icache.ReadReq_misses::total       102387                       # number of ReadReq misses
system.cpu0.icache.demand_misses::cpu0.inst            1                       # number of demand (read+write) misses
system.cpu0.icache.demand_misses::switch_cpus0.inst       102386                       # number of demand (read+write) misses
system.cpu0.icache.demand_misses::total        102387                       # number of demand (read+write) misses
system.cpu0.icache.overall_misses::cpu0.inst            1                       # number of overall misses
system.cpu0.icache.overall_misses::switch_cpus0.inst       102386                       # number of overall misses
system.cpu0.icache.overall_misses::total       102387                       # number of overall misses
system.cpu0.icache.ReadReq_miss_latency::switch_cpus0.inst   2381594481                       # number of ReadReq miss cycles
system.cpu0.icache.ReadReq_miss_latency::total   2381594481                       # number of ReadReq miss cycles
system.cpu0.icache.demand_miss_latency::switch_cpus0.inst   2381594481                       # number of demand (read+write) miss cycles
system.cpu0.icache.demand_miss_latency::total   2381594481                       # number of demand (read+write) miss cycles
system.cpu0.icache.overall_miss_latency::switch_cpus0.inst   2381594481                       # number of overall miss cycles
system.cpu0.icache.overall_miss_latency::total   2381594481                       # number of overall miss cycles
system.cpu0.icache.ReadReq_accesses::cpu0.inst            8                       # number of ReadReq accesses(hits+misses)
system.cpu0.icache.ReadReq_accesses::switch_cpus0.inst       102387                       # number of ReadReq accesses(hits+misses)
system.cpu0.icache.ReadReq_accesses::total       102395                       # number of ReadReq accesses(hits+misses)
system.cpu0.icache.demand_accesses::cpu0.inst            8                       # number of demand (read+write) accesses
system.cpu0.icache.demand_accesses::switch_cpus0.inst       102387                       # number of demand (read+write) accesses
system.cpu0.icache.demand_accesses::total       102395                       # number of demand (read+write) accesses
system.cpu0.icache.overall_accesses::cpu0.inst            8                       # number of overall (read+write) accesses
system.cpu0.icache.overall_accesses::switch_cpus0.inst       102387                       # number of overall (read+write) accesses
system.cpu0.icache.overall_accesses::total       102395                       # number of overall (read+write) accesses
system.cpu0.icache.ReadReq_miss_rate::cpu0.inst     0.125000                       # miss rate for ReadReq accesses
system.cpu0.icache.ReadReq_miss_rate::switch_cpus0.inst     0.999990                       # miss rate for ReadReq accesses
system.cpu0.icache.ReadReq_miss_rate::total     0.999922                       # miss rate for ReadReq accesses
system.cpu0.icache.demand_miss_rate::cpu0.inst     0.125000                       # miss rate for demand accesses
system.cpu0.icache.demand_miss_rate::switch_cpus0.inst     0.999990                       # miss rate for demand accesses
system.cpu0.icache.demand_miss_rate::total     0.999922                       # miss rate for demand accesses
system.cpu0.icache.overall_miss_rate::cpu0.inst     0.125000                       # miss rate for overall accesses
system.cpu0.icache.overall_miss_rate::switch_cpus0.inst     0.999990                       # miss rate for overall accesses
system.cpu0.icache.overall_miss_rate::total     0.999922                       # miss rate for overall accesses
system.cpu0.icache.ReadReq_avg_miss_latency::switch_cpus0.inst 23260.938810                       # average ReadReq miss latency
system.cpu0.icache.ReadReq_avg_miss_latency::total 23260.711624                       # average ReadReq miss latency
system.cpu0.icache.demand_avg_miss_latency::switch_cpus0.inst 23260.938810                       # average overall miss latency
system.cpu0.icache.demand_avg_miss_latency::total 23260.711624                       # average overall miss latency
system.cpu0.icache.overall_avg_miss_latency::switch_cpus0.inst 23260.938810                       # average overall miss latency
system.cpu0.icache.overall_avg_miss_latency::total 23260.711624                       # average overall miss latency
system.cpu0.icache.blocked_cycles::no_mshrs            0                       # number of cycles access was blocked
system.cpu0.icache.blocked_cycles::no_targets            0                       # number of cycles access was blocked
system.cpu0.icache.blocked::no_mshrs                0                       # number of cycles access was blocked
system.cpu0.icache.blocked::no_targets              0                       # number of cycles access was blocked
system.cpu0.icache.avg_blocked_cycles::no_mshrs          nan                       # average number of cycles each access was blocked
system.cpu0.icache.avg_blocked_cycles::no_targets          nan                       # average number of cycles each access was blocked
system.cpu0.icache.writebacks::writebacks       102259                       # number of writebacks
system.cpu0.icache.writebacks::total           102259                       # number of writebacks
system.cpu0.icache.ReadReq_mshr_misses::switch_cpus0.inst       102386                       # number of ReadReq MSHR misses
system.cpu0.icache.ReadReq_mshr_misses::total       102386                       # number of ReadReq MSHR misses
system.cpu0.icache.demand_mshr_misses::switch_cpus0.inst       102386                       # number of demand (read+write) MSHR misses
system.cpu0.icache.demand_mshr_misses::total       102386                       # number of demand (read+write) MSHR misses
system.cpu0.icache.overall_mshr_misses::switch_cpus0.inst       102386                       # number of overall MSHR misses
system.cpu0.icache.overall_mshr_misses::total       102386                       # number of overall MSHR misses
system.cpu0.icache.ReadReq_mshr_miss_latency::switch_cpus0.inst   2211019405                       # number of ReadReq MSHR miss cycles
system.cpu0.icache.ReadReq_mshr_miss_latency::total   2211019405                       # number of ReadReq MSHR miss cycles
system.cpu0.icache.demand_mshr_miss_latency::switch_cpus0.inst   2211019405                       # number of demand (read+write) MSHR miss cycles
system.cpu0.icache.demand_mshr_miss_latency::total   2211019405                       # number of demand (read+write) MSHR miss cycles
system.cpu0.icache.overall_mshr_miss_latency::switch_cpus0.inst   2211019405                       # number of overall MSHR miss cycles
system.cpu0.icache.overall_mshr_miss_latency::total   2211019405                       # number of overall MSHR miss cycles
system.cpu0.icache.ReadReq_mshr_miss_rate::switch_cpus0.inst     0.999990                       # mshr miss rate for ReadReq accesses
system.cpu0.icache.ReadReq_mshr_miss_rate::total     0.999912                       # mshr miss rate for ReadReq accesses
system.cpu0.icache.demand_mshr_miss_rate::switch_cpus0.inst     0.999990                       # mshr miss rate for demand accesses
system.cpu0.icache.demand_mshr_miss_rate::total     0.999912                       # mshr miss rate for demand accesses
system.cpu0.icache.overall_mshr_miss_rate::switch_cpus0.inst     0.999990                       # mshr miss rate for overall accesses
system.cpu0.icache.overall_mshr_miss_rate::total     0.999912                       # mshr miss rate for overall accesses
system.cpu0.icache.ReadReq_avg_mshr_miss_latency::switch_cpus0.inst 21594.938810                       # average ReadReq mshr miss latency
system.cpu0.icache.ReadReq_avg_mshr_miss_latency::total 21594.938810                       # average ReadReq mshr miss latency
system.cpu0.icache.demand_avg_mshr_miss_latency::switch_cpus0.inst 21594.938810                       # average overall mshr miss latency
system.cpu0.icache.demand_avg_mshr_miss_latency::total 21594.938810                       # average overall mshr miss latency
system.cpu0.icache.overall_avg_mshr_miss_latency::switch_cpus0.inst 21594.938810                       # average overall mshr miss latency
[...]
system.switch_cpus2.op_class_0::SimdCvt             0      0.00%     61.21% # Class of committed instruction
system.switch_cpus2.op_class_0::SimdMisc            0      0.00%     61.21% # Class of committed instruction
system.switch_cpus2.op_class_0::SimdMult            0      0.00%     61.21% # Class of committed instruction
system.switch_cpus2.op_class_0::SimdMultAcc            0      0.00%     61.21% # Class of committed instruction
system.switch_cpus2.op_class_0::SimdShift            0      0.00%     61.21% # Class of committed instruction
system.switch_cpus2.op_class_0::SimdShiftAcc            0      0.00%     61.21% # Class of committed instruction
system.switch_cpus2.op_class_0::SimdSqrt            0      0.00%     61.21% # Class of committed instruction
system.switch_cpus2.op_class_0::SimdFloatAdd            0      0.00%     61.21% # Class of committed instruction
system.switch_cpus2.op_class_0::SimdFloatAlu            0      0.00%     61.21% # Class of committed instruction
system.switch_cpus2.op_class_0::SimdFloatCmp            0      0.00%     61.21% # Class of committed instruction
system.switch_cpus2.op_class_0::SimdFloatCvt            0      0.00%     61.21% # Class of committed instruction
system.switch_cpus2.op_class_0::SimdFloatDiv            0      0.00%     61.21% # Class of committed instruction
system.switch_cpus2.op_class_0::SimdFloatMisc            0      0.00%     61.21% # Class of committed instruction
system.switch_cpus2.op_class_0::SimdFloatMult            0      0.00%     61.21% # Class of committed instruction
system.switch_cpus2.op_class_0::SimdFloatMultAcc            0      0.00%     61.21% # Class of committed instruction
system.switch_cpus2.op_class_0::SimdFloatSqrt            0      0.00%     61.21% # Class of committed instruction
system.switch_cpus2.op_class_0::MemRead       6062506      4.31%     65.52% # Class of committed instruction
system.switch_cpus2.op_class_0::MemWrite      1209390      0.86%     66.38% # Class of committed instruction
system.switch_cpus2.op_class_0::FloatMemRead     36997853     26.30%     92.68% # Class of committed instruction
system.switch_cpus2.op_class_0::FloatMemWrite     10291098      7.32%    100.00% # Class of committed instruction
system.switch_cpus2.op_class_0::IprAccess            0      0.00%    100.00% # Class of committed instruction
system.switch_cpus2.op_class_0::InstPrefetch            0      0.00%    100.00% # Class of committed instruction
system.switch_cpus2.op_class_0::total       140671105                       # Class of committed instruction
system.switch_cpus2.tickCycles              269083493                       # Number of cycles that the object actually ticked
system.switch_cpus2.idleCycles              111036117                       # Total number of cycles that the object has spent stopped
system.switch_cpus3.branchPred.lookups             10                       # Number of BP lookups
system.switch_cpus3.branchPred.condPredicted           10                       # Number of conditional branches predicted
system.switch_cpus3.branchPred.condIncorrect           10                       # Number of conditional branches incorrect
system.switch_cpus3.branchPred.BTBLookups            0                       # Number of BTB lookups
system.switch_cpus3.branchPred.BTBHits              0                       # Number of BTB hits
system.switch_cpus3.branchPred.BTBCorrect            0                       # Number of correct BTB predictions (this stat may not work properly.
system.switch_cpus3.branchPred.BTBHitPct          nan                       # BTB Hit Percentage
system.switch_cpus3.branchPred.usedRAS              0                       # Number of times the RAS was used to get a target.
system.switch_cpus3.branchPred.RASInCorrect            0                       # Number of incorrect RAS predictions.
system.switch_cpus3.branchPred.indirectLookups            0                       # Number of indirect predictor lookups.
system.switch_cpus3.branchPred.indirectHits            0                       # Number of indirect target hits.
system.switch_cpus3.branchPred.indirectMisses            0                       # Number of indirect misses.
system.switch_cpus3.branchPredindirectMispredicted            0                       # Number of mispredicted indirect branches.
system.switch_cpus3.dtb.walker.pwrStateResidencyTicks::UNDEFINED 316639635130                       # Cumulative time (in ticks) in various power states
system.switch_cpus3.itb.walker.pwrStateResidencyTicks::UNDEFINED 316639635130                       # Cumulative time (in ticks) in various power states
system.switch_cpus3.pwrStateResidencyTicks::ON 316639635130                       # Cumulative time (in ticks) in various power states
system.switch_cpus3.numCycles               380119531                       # number of cpu cycles simulated
system.switch_cpus3.numWorkItemsStarted             0                       # number of work items this cpu started
system.switch_cpus3.numWorkItemsCompleted            0                       # number of work items this cpu completed
system.switch_cpus3.committedInsts           99888915                       # Number of instructions committed
system.switch_cpus3.committedOps            140672431                       # Number of ops (including micro ops) committed
system.switch_cpus3.discardedOps               812665                       # Number of ops (including micro ops) which were discarded before commit
system.switch_cpus3.numFetchSuspends                0                       # Number of times Execute suspended instruction fetching
system.switch_cpus3.cpi                      3.805423                       # CPI: cycles per instruction
system.switch_cpus3.ipc                      0.262783                       # IPC: instructions per cycle
system.switch_cpus3.op_class_0::No_OpClass         7672      0.01%      0.01% # Class of committed instruction
system.switch_cpus3.op_class_0::IntAlu       35000713     24.88%     24.89% # Class of committed instruction
system.switch_cpus3.op_class_0::IntMult           312      0.00%     24.89% # Class of committed instruction
system.switch_cpus3.op_class_0::IntDiv            336      0.00%     24.89% # Class of committed instruction
system.switch_cpus3.op_class_0::FloatAdd     51102034     36.33%     61.21% # Class of committed instruction
system.switch_cpus3.op_class_0::FloatCmp            0      0.00%     61.21% # Class of committed instruction
system.switch_cpus3.op_class_0::FloatCvt            0      0.00%     61.21% # Class of committed instruction
system.switch_cpus3.op_class_0::FloatMult            0      0.00%     61.21% # Class of committed instruction
system.switch_cpus3.op_class_0::FloatMultAcc            0      0.00%     61.21% # Class of committed instruction
system.switch_cpus3.op_class_0::FloatDiv            0      0.00%     61.21% # Class of committed instruction
system.switch_cpus3.op_class_0::FloatMisc            0      0.00%     61.21% # Class of committed instruction
system.switch_cpus3.op_class_0::FloatSqrt            0      0.00%     61.21% # Class of committed instruction
system.switch_cpus3.op_class_0::SimdAdd             0      0.00%     61.21% # Class of committed instruction
system.switch_cpus3.op_class_0::SimdAddAcc            0      0.00%     61.21% # Class of committed instruction
system.switch_cpus3.op_class_0::SimdAlu             0      0.00%     61.21% # Class of committed instruction
system.switch_cpus3.op_class_0::SimdCmp             0      0.00%     61.21% # Class of committed instruction
system.switch_cpus3.op_class_0::SimdCvt             0      0.00%     61.21% # Class of committed instruction
system.switch_cpus3.op_class_0::SimdMisc            0      0.00%     61.21% # Class of committed instruction
system.switch_cpus3.op_class_0::SimdMult            0      0.00%     61.21% # Class of committed instruction
system.switch_cpus3.op_class_0::SimdMultAcc            0      0.00%     61.21% # Class of committed instruction
system.switch_cpus3.op_class_0::SimdShift            0      0.00%     61.21% # Class of committed instruction
system.switch_cpus3.op_class_0::SimdShiftAcc            0      0.00%     61.21% # Class of committed instruction
system.switch_cpus3.op_class_0::SimdSqrt            0      0.00%     61.21% # Class of committed instruction
system.switch_cpus3.op_class_0::SimdFloatAdd            0      0.00%     61.21% # Class of committed instruction
system.switch_cpus3.op_class_0::SimdFloatAlu            0      0.00%     61.21% # Class of committed instruction
system.switch_cpus3.op_class_0::SimdFloatCmp            0      0.00%     61.21% # Class of committed instruction
system.switch_cpus3.op_class_0::SimdFloatCvt            0      0.00%     61.21% # Class of committed instruction
system.switch_cpus3.op_class_0::SimdFloatDiv            0      0.00%     61.21% # Class of committed instruction
system.switch_cpus3.op_class_0::SimdFloatMisc            0      0.00%     61.21% # Class of committed instruction
system.switch_cpus3.op_class_0::SimdFloatMult            0      0.00%     61.21% # Class of committed instruction
system.switch_cpus3.op_class_0::SimdFloatMultAcc            0      0.00%     61.21% # Class of committed instruction
system.switch_cpus3.op_class_0::SimdFloatSqrt            0      0.00%     61.21% # Class of committed instruction
system.switch_cpus3.op_class_0::MemRead       6062557      4.31%     65.52% # Class of committed instruction
system.switch_cpus3.op_class_0::MemWrite      1209405      0.86%     66.38% # Class of committed instruction
system.switch_cpus3.op_class_0::FloatMemRead     36998237     26.30%     92.68% # Class of committed instruction
system.switch_cpus3.op_class_0::FloatMemWrite     10291165      7.32%    100.00% # Class of committed instruction
system.switch_cpus3.op_class_0::IprAccess            0      0.00%    100.00% # Class of committed instruction
system.switch_cpus3.op_class_0::InstPrefetch            0      0.00%    100.00% # Class of committed instruction
system.switch_cpus3.op_class_0::total       140672431                       # Class of committed instruction
system.switch_cpus3.tickCycles              269098806                       # Number of cycles that the object actually ticked
system.switch_cpus3.idleCycles              111020725                       # Total number of cycles that the object has spent stopped
system.tol2bus.snoop_filter.tot_requests     98539525                       # Total number of requests made to the snoop filter.
system.tol2bus.snoop_filter.hit_single_requests     49269763                       # Number of requests hitting in the snoop filter with a single holder of the requested data.
system.tol2bus.snoop_filter.hit_multi_requests           46                       # Number of requests hitting in the snoop filter with multiple (>1) holders of the requested data.
system.tol2bus.snoop_filter.tot_snoops          19019                       # Total number of snoops made to the snoop filter.
system.tol2bus.snoop_filter.hit_single_snoops        19019                       # Number of snoops hitting in the snoop filter with a single holder of the requested data.
system.tol2bus.snoop_filter.hit_multi_snoops            0                       # Number of snoops hitting in the snoop filter with multiple (>1) holders of the requested data.
system.tol2bus.pwrStateResidencyTicks::UNDEFINED 316639635130                       # Cumulative time (in ticks) in various power states
system.tol2bus.trans_dist::ReadResp          48157540                       # Transaction distribution
system.tol2bus.trans_dist::WritebackDirty      2374311                       # Transaction distribution
system.tol2bus.trans_dist::WritebackClean     39131956                       # Transaction distribution
system.tol2bus.trans_dist::CleanEvict         9998589                       # Transaction distribution
system.tol2bus.trans_dist::ReadExReq          1112222                       # Transaction distribution
system.tol2bus.trans_dist::ReadExResp         1112222                       # Transaction distribution
system.tol2bus.trans_dist::ReadCleanReq      39131955                       # Transaction distribution
system.tol2bus.trans_dist::ReadSharedReq      9025585                       # Transaction distribution
system.tol2bus.pkt_count_system.cpu0.icache.mem_side::system.l2.cpu_side     29374268                       # Packet count per connected master and slave (bytes)
system.tol2bus.pkt_count_system.cpu0.dcache.mem_side::system.l2.cpu_side      7608846                       # Packet count per connected master and slave (bytes)
system.tol2bus.pkt_count_system.cpu1.icache.mem_side::system.l2.cpu_side     29342460                       # Packet count per connected master and slave (bytes)
system.tol2bus.pkt_count_system.cpu1.dcache.mem_side::system.l2.cpu_side      7602071                       # Packet count per connected master and slave (bytes)
system.tol2bus.pkt_count_system.cpu2.icache.mem_side::system.l2.cpu_side     29339781                       # Packet count per connected master and slave (bytes)
system.tol2bus.pkt_count_system.cpu2.dcache.mem_side::system.l2.cpu_side      7601181                       # Packet count per connected master and slave (bytes)
system.tol2bus.pkt_count_system.cpu3.icache.mem_side::system.l2.cpu_side     29339357                       # Packet count per connected master and slave (bytes)
system.tol2bus.pkt_count_system.cpu3.dcache.mem_side::system.l2.cpu_side      7601323                       # Packet count per connected master and slave (bytes)
system.tol2bus.pkt_count::total             147809287                       # Packet count per connected master and slave (bytes)
system.tol2bus.pkt_size_system.cpu0.icache.mem_side::system.l2.cpu_side   1253302080                       # Cumulative packet size per connected master and slave (bytes)
system.tol2bus.pkt_size_system.cpu0.dcache.mem_side::system.l2.cpu_side    189650368                       # Cumulative packet size per connected master and slave (bytes)
system.tol2bus.pkt_size_system.cpu1.icache.mem_side::system.l2.cpu_side   1251944960                       # Cumulative packet size per connected master and slave (bytes)
system.tol2bus.pkt_size_system.cpu1.dcache.mem_side::system.l2.cpu_side    190196032                       # Cumulative packet size per connected master and slave (bytes)
system.tol2bus.pkt_size_system.cpu2.icache.mem_side::system.l2.cpu_side   1251830656                       # Cumulative packet size per connected master and slave (bytes)
system.tol2bus.pkt_size_system.cpu2.dcache.mem_side::system.l2.cpu_side    189285824                       # Cumulative packet size per connected master and slave (bytes)
system.tol2bus.pkt_size_system.cpu3.icache.mem_side::system.l2.cpu_side   1251812608                       # Cumulative packet size per connected master and slave (bytes)
system.tol2bus.pkt_size_system.cpu3.dcache.mem_side::system.l2.cpu_side    188993536                       # Cumulative packet size per connected master and slave (bytes)
system.tol2bus.pkt_size::total             5767016064                       # Cumulative packet size per connected master and slave (bytes)
system.tol2bus.snoops                         2235093                       # Total snoops (count)
system.tol2bus.snoopTraffic                  42649792                       # Total snoop traffic (bytes)
system.tol2bus.snoop_fanout::samples         51504855                       # Request fanout histogram
system.tol2bus.snoop_fanout::mean            0.000370                       # Request fanout histogram
system.tol2bus.snoop_fanout::stdev           0.019236                       # Request fanout histogram
system.tol2bus.snoop_fanout::underflows             0      0.00%      0.00% # Request fanout histogram
system.tol2bus.snoop_fanout::0               51485790     99.96%     99.96% # Request fanout histogram
system.tol2bus.snoop_fanout::1                  19065      0.04%    100.00% # Request fanout histogram
system.tol2bus.snoop_fanout::2                      0      0.00%    100.00% # Request fanout histogram
system.tol2bus.snoop_fanout::3                      0      0.00%    100.00% # Request fanout histogram
system.tol2bus.snoop_fanout::4                      0      0.00%    100.00% # Request fanout histogram
system.tol2bus.snoop_fanout::5                      0      0.00%    100.00% # Request fanout histogram
system.tol2bus.snoop_fanout::6                      0      0.00%    100.00% # Request fanout histogram
system.tol2bus.snoop_fanout::7                      0      0.00%    100.00% # Request fanout histogram
system.tol2bus.snoop_fanout::8                      0      0.00%    100.00% # Request fanout histogram
system.tol2bus.snoop_fanout::9                      0      0.00%    100.00% # Request fanout histogram
system.tol2bus.snoop_fanout::10                     0      0.00%    100.00% # Request fanout histogram
system.tol2bus.snoop_fanout::11                     0      0.00%    100.00% # Request fanout histogram
system.tol2bus.snoop_fanout::12                     0      0.00%    100.00% # Request fanout histogram
system.tol2bus.snoop_fanout::13                     0      0.00%    100.00% # Request fanout histogram
system.tol2bus.snoop_fanout::14                     0      0.00%    100.00% # Request fanout histogram
system.tol2bus.snoop_fanout::15                     0      0.00%    100.00% # Request fanout histogram
system.tol2bus.snoop_fanout::16                     0      0.00%    100.00% # Request fanout histogram
system.tol2bus.snoop_fanout::overflows              0      0.00%    100.00% # Request fanout histogram
system.tol2bus.snoop_fanout::min_value              0                       # Request fanout histogram
system.tol2bus.snoop_fanout::max_value              1                       # Request fanout histogram
system.tol2bus.snoop_fanout::total           51504855                       # Request fanout histogram
system.tol2bus.reqLayer0.occupancy       150122637749                       # Layer occupancy (ticks)
system.tol2bus.reqLayer0.utilization             47.4                       # Layer utilization (%)
system.tol2bus.respLayer0.occupancy       24469814355                       # Layer occupancy (ticks)
system.tol2bus.respLayer0.utilization             7.7                       # Layer utilization (%)
system.tol2bus.respLayer1.occupancy        6369782176                       # Layer occupancy (ticks)
system.tol2bus.respLayer1.utilization             2.0                       # Layer utilization (%)
system.tol2bus.respLayer4.occupancy       24443427296                       # Layer occupancy (ticks)
system.tol2bus.respLayer4.utilization             7.7                       # Layer utilization (%)
system.tol2bus.respLayer5.occupancy        6362298221                       # Layer occupancy (ticks)
system.tol2bus.respLayer5.utilization             2.0                       # Layer utilization (%)
system.tol2bus.respLayer8.occupancy       24441214822                       # Layer occupancy (ticks)
system.tol2bus.respLayer8.utilization             7.7                       # Layer utilization (%)
system.tol2bus.respLayer9.occupancy        6363252486                       # Layer occupancy (ticks)
system.tol2bus.respLayer9.utilization             2.0                       # Layer utilization (%)
system.tol2bus.respLayer12.occupancy      24440762627                       # Layer occupancy (ticks)
system.tol2bus.respLayer12.utilization            7.7                       # Layer utilization (%)
system.tol2bus.respLayer13.occupancy       6363552132                       # Layer occupancy (ticks)
system.tol2bus.respLayer13.utilization            2.0                       # Layer utilization (%)

---------- End Simulation Statistics   ----------
