
---------- Begin Simulation Statistics ----------
sim_seconds                                  0.000578                       # Number of seconds simulated
sim_ticks                                   578196000                       # Number of ticks simulated
final_tick                               1422546008000                       # Number of ticks from beginning of simulation (restored from checkpoints and never reset)
sim_freq                                 1000000000000                       # Frequency of simulated ticks
host_inst_rate                                  48976                       # Simulator instruction rate (inst/s)
host_op_rate                                    87598                       # Simulator op (including micro ops) rate (op/s)
host_tick_rate                               28317559                       # Simulator tick rate (ticks/s)
host_mem_usage                                1283112                       # Number of bytes of host memory used
host_seconds                                    20.42                       # Real time elapsed on the host
sim_insts                                     1000010                       # Number of instructions simulated
sim_ops                                       1788604                       # Number of ops (including micro ops) simulated
system.voltage_domain.voltage                       1                       # Voltage in Volts
system.clk_domain.clock                          1000                       # Clock period in ticks
system.mem_ctrls.pwrStateResidencyTicks::UNDEFINED 1422546008000                       # Cumulative time (in ticks) in various power states
system.mem_ctrls.bytes_read::cpu.inst             128                       # Number of bytes read from this memory
system.mem_ctrls.bytes_read::cpu.data             448                       # Number of bytes read from this memory
system.mem_ctrls.bytes_read::switch_cpus.inst        53504                       # Number of bytes read from this memory
system.mem_ctrls.bytes_read::switch_cpus.data        85952                       # Number of bytes read from this memory
system.mem_ctrls.bytes_read::total             140032                       # Number of bytes read from this memory
system.mem_ctrls.bytes_inst_read::cpu.inst          128                       # Number of instructions bytes read from this memory
system.mem_ctrls.bytes_inst_read::switch_cpus.inst        53504                       # Number of instructions bytes read from this memory
system.mem_ctrls.bytes_inst_read::total         53632                       # Number of instructions bytes read from this memory
system.mem_ctrls.num_reads::cpu.inst                2                       # Number of read requests responded to by this memory
system.mem_ctrls.num_reads::cpu.data                7                       # Number of read requests responded to by this memory
system.mem_ctrls.num_reads::switch_cpus.inst          836                       # Number of read requests responded to by this memory
system.mem_ctrls.num_reads::switch_cpus.data         1343                       # Number of read requests responded to by this memory
system.mem_ctrls.num_reads::total                2188                       # Number of read requests responded to by this memory
system.mem_ctrls.bw_read::cpu.inst             221378                       # Total read bandwidth from this memory (bytes/s)
system.mem_ctrls.bw_read::cpu.data             774824                       # Total read bandwidth from this memory (bytes/s)
system.mem_ctrls.bw_read::switch_cpus.inst     92536095                       # Total read bandwidth from this memory (bytes/s)
system.mem_ctrls.bw_read::switch_cpus.data    148655473                       # Total read bandwidth from this memory (bytes/s)
system.mem_ctrls.bw_read::total             242187770                       # Total read bandwidth from this memory (bytes/s)
system.mem_ctrls.bw_inst_read::cpu.inst        221378                       # Instruction read bandwidth from this memory (bytes/s)
system.mem_ctrls.bw_inst_read::switch_cpus.inst     92536095                       # Instruction read bandwidth from this memory (bytes/s)
system.mem_ctrls.bw_inst_read::total         92757473                       # Instruction read bandwidth from this memory (bytes/s)
system.mem_ctrls.bw_total::cpu.inst            221378                       # Total bandwidth to/from this memory (bytes/s)
system.mem_ctrls.bw_total::cpu.data            774824                       # Total bandwidth to/from this memory (bytes/s)
system.mem_ctrls.bw_total::switch_cpus.inst     92536095                       # Total bandwidth to/from this memory (bytes/s)
system.mem_ctrls.bw_total::switch_cpus.data    148655473                       # Total bandwidth to/from this memory (bytes/s)
system.mem_ctrls.bw_total::total            242187770                       # Total bandwidth to/from this memory (bytes/s)
system.mem_ctrls.readReqs                        2179                       # Number of read requests accepted
system.mem_ctrls.writeReqs                          0                       # Number of write requests accepted
system.mem_ctrls.readBursts                      2179                       # Number of DRAM read bursts, including those serviced by the write queue
system.mem_ctrls.writeBursts                        0                       # Number of DRAM write bursts, including those merged in the write queue
system.mem_ctrls.bytesReadDRAM                 139456                       # Total number of bytes read from DRAM
system.mem_ctrls.bytesReadWrQ                       0                       # Total number of bytes read from write queue
system.mem_ctrls.bytesWritten                       0                       # Total number of bytes written to DRAM
system.mem_ctrls.bytesReadSys                  139456                       # Total read bytes from the system interface side
system.mem_ctrls.bytesWrittenSys                    0                       # Total written bytes from the system interface side
system.mem_ctrls.servicedByWrQ                      0                       # Number of DRAM read bursts serviced by the write queue
system.mem_ctrls.mergedWrBursts                     0                       # Number of DRAM write bursts merged with an existing one
system.mem_ctrls.neitherReadNorWriteReqs            0                       # Number of requests that are neither read nor write
system.mem_ctrls.perBankRdBursts::0               236                       # Per bank write bursts
system.mem_ctrls.perBankRdBursts::1               169                       # Per bank write bursts
system.mem_ctrls.perBankRdBursts::2               118                       # Per bank write bursts
system.mem_ctrls.perBankRdBursts::3               109                       # Per bank write bursts
system.mem_ctrls.perBankRdBursts::4                63                       # Per bank write bursts
system.mem_ctrls.perBankRdBursts::5               276                       # Per bank write bursts
system.mem_ctrls.perBankRdBursts::6               165                       # Per bank write bursts
system.mem_ctrls.perBankRdBursts::7               191                       # Per bank write bursts
system.mem_ctrls.perBankRdBursts::8               183                       # Per bank write bursts
system.mem_ctrls.perBankRdBursts::9               112                       # Per bank write bursts
system.mem_ctrls.perBankRdBursts::10               29                       # Per bank write bursts
system.mem_ctrls.perBankRdBursts::11               52                       # Per bank write bursts
system.mem_ctrls.perBankRdBursts::12               90                       # Per bank write bursts
system.mem_ctrls.perBankRdBursts::13              143                       # Per bank write bursts
system.mem_ctrls.perBankRdBursts::14              106                       # Per bank write bursts
system.mem_ctrls.perBankRdBursts::15              137                       # Per bank write bursts
system.mem_ctrls.perBankWrBursts::0                 0                       # Per bank write bursts
system.mem_ctrls.perBankWrBursts::1                 0                       # Per bank write bursts
system.mem_ctrls.perBankWrBursts::2                 0                       # Per bank write bursts
system.mem_ctrls.perBankWrBursts::3                 0                       # Per bank write bursts
system.mem_ctrls.perBankWrBursts::4                 0                       # Per bank write bursts
system.mem_ctrls.perBankWrBursts::5                 0                       # Per bank write bursts
system.mem_ctrls.perBankWrBursts::6                 0                       # Per bank write bursts
system.mem_ctrls.perBankWrBursts::7                 0                       # Per bank write bursts
system.mem_ctrls.perBankWrBursts::8                 0                       # Per bank write bursts
system.mem_ctrls.perBankWrBursts::9                 0                       # Per bank write bursts
system.mem_ctrls.perBankWrBursts::10                0                       # Per bank write bursts
system.mem_ctrls.perBankWrBursts::11                0                       # Per bank write bursts
system.mem_ctrls.perBankWrBursts::12                0                       # Per bank write bursts
system.mem_ctrls.perBankWrBursts::13                0                       # Per bank write bursts
system.mem_ctrls.perBankWrBursts::14                0                       # Per bank write bursts
system.mem_ctrls.perBankWrBursts::15                0                       # Per bank write bursts
system.mem_ctrls.numRdRetry                         0                       # Number of times read queue was full causing retry
system.mem_ctrls.numWrRetry                         0                       # Number of times write queue was full causing retry
system.mem_ctrls.totGap                     553396400                       # Total gap between requests
system.mem_ctrls.readPktSize::0                     0                       # Read request sizes (log2)
system.mem_ctrls.readPktSize::1                     0                       # Read request sizes (log2)
system.mem_ctrls.readPktSize::2                     0                       # Read request sizes (log2)
system.mem_ctrls.readPktSize::3                     0                       # Read request sizes (log2)
system.mem_ctrls.readPktSize::4                     0                       # Read request sizes (log2)
system.mem_ctrls.readPktSize::5                     0                       # Read request sizes (log2)
system.mem_ctrls.readPktSize::6                  2179                       # Read request sizes (log2)
system.mem_ctrls.writePktSize::0                    0                       # Write request sizes (log2)
system.mem_ctrls.writePktSize::1                    0                       # Write request sizes (log2)
system.mem_ctrls.writePktSize::2                    0                       # Write request sizes (log2)
system.mem_ctrls.writePktSize::3                    0                       # Write request sizes (log2)
system.mem_ctrls.writePktSize::4                    0                       # Write request sizes (log2)
system.mem_ctrls.writePktSize::5                    0                       # Write request sizes (log2)
system.mem_ctrls.writePktSize::6                    0                       # Write request sizes (log2)
system.mem_ctrls.rdQLenPdf::0                    1331                       # What read queue length does an incoming req see
system.mem_ctrls.rdQLenPdf::1                     566                       # What read queue length does an incoming req see
system.mem_ctrls.rdQLenPdf::2                     209                       # What read queue length does an incoming req see
system.mem_ctrls.rdQLenPdf::3                      59                       # What read queue length does an incoming req see
system.mem_ctrls.rdQLenPdf::4                      11                       # What read queue length does an incoming req see
system.mem_ctrls.rdQLenPdf::5                       3                       # What read queue length does an incoming req see
system.mem_ctrls.rdQLenPdf::6                       0                       # What read queue length does an incoming req see
system.mem_ctrls.rdQLenPdf::7                       0                       # What read queue length does an incoming req see
system.mem_ctrls.rdQLenPdf::8                       0                       # What read queue length does an incoming req see
system.mem_ctrls.rdQLenPdf::9                       0                       # What read queue length does an incoming req see
system.mem_ctrls.rdQLenPdf::10                      0                       # What read queue length does an incoming req see
system.mem_ctrls.rdQLenPdf::11                      0                       # What read queue length does an incoming req see
system.mem_ctrls.rdQLenPdf::12                      0                       # What read queue length does an incoming req see
system.mem_ctrls.rdQLenPdf::13                      0                       # What read queue length does an incoming req see
system.mem_ctrls.rdQLenPdf::14                      0                       # What read queue length does an incoming req see
system.mem_ctrls.rdQLenPdf::15                      0                       # What read queue length does an incoming req see
system.mem_ctrls.rdQLenPdf::16                      0                       # What read queue length does an incoming req see
system.mem_ctrls.rdQLenPdf::17                      0                       # What read queue length does an incoming req see
system.mem_ctrls.rdQLenPdf::18                      0                       # What read queue length does an incoming req see
system.mem_ctrls.rdQLenPdf::19                      0                       # What read queue length does an incoming req see
system.mem_ctrls.rdQLenPdf::20                      0                       # What read queue length does an incoming req see
system.mem_ctrls.rdQLenPdf::21                      0                       # What read queue length does an incoming req see
system.mem_ctrls.rdQLenPdf::22                      0                       # What read queue length does an incoming req see
system.mem_ctrls.rdQLenPdf::23                      0                       # What read queue length does an incoming req see
system.mem_ctrls.rdQLenPdf::24                      0                       # What read queue length does an incoming req see
system.mem_ctrls.rdQLenPdf::25                      0                       # What read queue length does an incoming req see
system.mem_ctrls.rdQLenPdf::26                      0                       # What read queue length does an incoming req see
system.mem_ctrls.rdQLenPdf::27                      0                       # What read queue length does an incoming req see
system.mem_ctrls.rdQLenPdf::28                      0                       # What read queue length does an incoming req see
system.mem_ctrls.rdQLenPdf::29                      0                       # What read queue length does an incoming req see
system.mem_ctrls.rdQLenPdf::30                      0                       # What read queue length does an incoming req see
system.mem_ctrls.rdQLenPdf::31                      0                       # What read queue length does an incoming req see
system.mem_ctrls.wrQLenPdf::0                       0                       # What write queue length does an incoming req see
system.mem_ctrls.wrQLenPdf::1                       0                       # What write queue length does an incoming req see
system.mem_ctrls.wrQLenPdf::2                       0                       # What write queue length does an incoming req see
system.mem_ctrls.wrQLenPdf::3                       0                       # What write queue length does an incoming req see
system.mem_ctrls.wrQLenPdf::4                       0                       # What write queue length does an incoming req see
system.mem_ctrls.wrQLenPdf::5                       0                       # What write queue length does an incoming req see
system.mem_ctrls.wrQLenPdf::6                       0                       # What write queue length does an incoming req see
system.mem_ctrls.wrQLenPdf::7                       0                       # What write queue length does an incoming req see
system.mem_ctrls.wrQLenPdf::8                       0                       # What write queue length does an incoming req see
system.mem_ctrls.wrQLenPdf::9                       0                       # What write queue length does an incoming req see
system.mem_ctrls.wrQLenPdf::10                      0                       # What write queue length does an incoming req see
system.mem_ctrls.wrQLenPdf::11                      0                       # What write queue length does an incoming req see
system.mem_ctrls.wrQLenPdf::12                      0                       # What write queue length does an incoming req see
system.mem_ctrls.wrQLenPdf::13                      0                       # What write queue length does an incoming req see
system.mem_ctrls.wrQLenPdf::14                      0                       # What write queue length does an incoming req see
system.mem_ctrls.wrQLenPdf::15                      0                       # What write queue length does an incoming req see
system.mem_ctrls.wrQLenPdf::16                      0                       # What write queue length does an incoming req see
system.mem_ctrls.wrQLenPdf::17                      0                       # What write queue length does an incoming req see
system.mem_ctrls.wrQLenPdf::18                      0                       # What write queue length does an incoming req see
system.mem_ctrls.wrQLenPdf::19                      0                       # What write queue length does an incoming req see
system.mem_ctrls.wrQLenPdf::20                      0                       # What write queue length does an incoming req see
system.mem_ctrls.wrQLenPdf::21                      0                       # What write queue length does an incoming req see
system.mem_ctrls.wrQLenPdf::22                      0                       # What write queue length does an incoming req see
system.mem_ctrls.wrQLenPdf::23                      0                       # What write queue length does an incoming req see
system.mem_ctrls.wrQLenPdf::24                      0                       # What write queue length does an incoming req see
system.mem_ctrls.wrQLenPdf::25                      0                       # What write queue length does an incoming req see
system.mem_ctrls.wrQLenPdf::26                      0                       # What write queue length does an incoming req see
system.mem_ctrls.wrQLenPdf::27                      0                       # What write queue length does an incoming req see
system.mem_ctrls.wrQLenPdf::28                      0                       # What write queue length does an incoming req see
system.mem_ctrls.wrQLenPdf::29                      0                       # What write queue length does an incoming req see
system.mem_ctrls.wrQLenPdf::30                      0                       # What write queue length does an incoming req see
system.mem_ctrls.wrQLenPdf::31                      0                       # What write queue length does an incoming req see
system.mem_ctrls.wrQLenPdf::32                      0                       # What write queue length does an incoming req see
system.mem_ctrls.wrQLenPdf::33                      0                       # What write queue length does an incoming req see
system.mem_ctrls.wrQLenPdf::34                      0                       # What write queue length does an incoming req see
system.mem_ctrls.wrQLenPdf::35                      0                       # What write queue length does an incoming req see
system.mem_ctrls.wrQLenPdf::36                      0                       # What write queue length does an incoming req see
system.mem_ctrls.wrQLenPdf::37                      0                       # What write queue length does an incoming req see
system.mem_ctrls.wrQLenPdf::38                      0                       # What write queue length does an incoming req see
system.mem_ctrls.wrQLenPdf::39                      0                       # What write queue length does an incoming req see
system.mem_ctrls.wrQLenPdf::40                      0                       # What write queue length does an incoming req see
system.mem_ctrls.wrQLenPdf::41                      0                       # What write queue length does an incoming req see
system.mem_ctrls.wrQLenPdf::42                      0                       # What write queue length does an incoming req see
system.mem_ctrls.wrQLenPdf::43                      0                       # What write queue length does an incoming req see
system.mem_ctrls.wrQLenPdf::44                      0                       # What write queue length does an incoming req see
system.mem_ctrls.wrQLenPdf::45                      0                       # What write queue length does an incoming req see
system.mem_ctrls.wrQLenPdf::46                      0                       # What write queue length does an incoming req see
system.mem_ctrls.wrQLenPdf::47                      0                       # What write queue length does an incoming req see
system.mem_ctrls.wrQLenPdf::48                      0                       # What write queue length does an incoming req see
system.mem_ctrls.wrQLenPdf::49                      0                       # What write queue length does an incoming req see
system.mem_ctrls.wrQLenPdf::50                      0                       # What write queue length does an incoming req see
system.mem_ctrls.wrQLenPdf::51                      0                       # What write queue length does an incoming req see
system.mem_ctrls.wrQLenPdf::52                      0                       # What write queue length does an incoming req see
system.mem_ctrls.wrQLenPdf::53                      0                       # What write queue length does an incoming req see
system.mem_ctrls.wrQLenPdf::54                      0                       # What write queue length does an incoming req see
system.mem_ctrls.wrQLenPdf::55                      0                       # What write queue length does an incoming req see
system.mem_ctrls.wrQLenPdf::56                      0                       # What write queue length does an incoming req see
system.mem_ctrls.wrQLenPdf::57                      0                       # What write queue length does an incoming req see
system.mem_ctrls.wrQLenPdf::58                      0                       # What write queue length does an incoming req see
system.mem_ctrls.wrQLenPdf::59                      0                       # What write queue length does an incoming req see
system.mem_ctrls.wrQLenPdf::60                      0                       # What write queue length does an incoming req see
system.mem_ctrls.wrQLenPdf::61                      0                       # What write queue length does an incoming req see
system.mem_ctrls.wrQLenPdf::62                      0                       # What write queue length does an incoming req see
system.mem_ctrls.wrQLenPdf::63                      0                       # What write queue length does an incoming req see
system.mem_ctrls.bytesPerActivate::samples          651                       # Bytes accessed per row activation
system.mem_ctrls.bytesPerActivate::mean    214.218126                       # Bytes accessed per row activation
system.mem_ctrls.bytesPerActivate::gmean   133.566206                       # Bytes accessed per row activation
system.mem_ctrls.bytesPerActivate::stdev   254.834791                       # Bytes accessed per row activation
system.mem_ctrls.bytesPerActivate::0-127          322     49.46%     49.46% # Bytes accessed per row activation
system.mem_ctrls.bytesPerActivate::128-255          163     25.04%     74.50% # Bytes accessed per row activation
system.mem_ctrls.bytesPerActivate::256-383           53      8.14%     82.64% # Bytes accessed per row activation
system.mem_ctrls.bytesPerActivate::384-511           31      4.76%     87.40% # Bytes accessed per row activation
system.mem_ctrls.bytesPerActivate::512-639           21      3.23%     90.63% # Bytes accessed per row activation
system.mem_ctrls.bytesPerActivate::640-767           17      2.61%     93.24% # Bytes accessed per row activation
system.mem_ctrls.bytesPerActivate::768-895            3      0.46%     93.70% # Bytes accessed per row activation
system.mem_ctrls.bytesPerActivate::896-1023            7      1.08%     94.78% # Bytes accessed per row activation
system.mem_ctrls.bytesPerActivate::1024-1151           34      5.22%    100.00% # Bytes accessed per row activation
system.mem_ctrls.bytesPerActivate::total          651                       # Bytes accessed per row activation
system.mem_ctrls.totQLat                     48725600                       # Total ticks spent queuing
system.mem_ctrls.totMemAccLat                89581850                       # Total ticks spent from burst creation until serviced by the DRAM
system.mem_ctrls.totBusLat                   10895000                       # Total ticks spent in databus transfers
system.mem_ctrls.avgQLat                     22361.45                       # Average queueing delay per DRAM burst
system.mem_ctrls.avgBusLat                    5000.00                       # Average bus latency per DRAM burst
system.mem_ctrls.avgMemAccLat                41111.45                       # Average memory access latency per DRAM burst
system.mem_ctrls.avgRdBW                       241.19                       # Average DRAM read bandwidth in MiByte/s
system.mem_ctrls.avgWrBW                         0.00                       # Average achieved write bandwidth in MiByte/s
system.mem_ctrls.avgRdBWSys                    241.19                       # Average system read bandwidth in MiByte/s
system.mem_ctrls.avgWrBWSys                      0.00                       # Average system write bandwidth in MiByte/s
system.mem_ctrls.peakBW                      12800.00                       # Theoretical peak bandwidth in MiByte/s
system.mem_ctrls.busUtil                         1.88                       # Data bus utilization in percentage
system.mem_ctrls.busUtilRead                     1.88                       # Data bus utilization in percentage for reads
system.mem_ctrls.busUtilWrite                    0.00                       # Data bus utilization in percentage for writes
system.mem_ctrls.avgRdQLen                       1.40                       # Average read queue length when enqueuing
system.mem_ctrls.avgWrQLen                       0.00                       # Average write queue length when enqueuing
system.mem_ctrls.readRowHits                     1528                       # Number of row buffer hits during reads
system.mem_ctrls.writeRowHits                       0                       # Number of row buffer hits during writes
system.mem_ctrls.readRowHitRate                 70.12                       # Row buffer hit rate for reads
system.mem_ctrls.writeRowHitRate                  nan                       # Row buffer hit rate for writes
system.mem_ctrls.avgGap                     253968.06                       # Average gap between requests
system.mem_ctrls.pageHitRate                    70.12                       # Row buffer hit rate, read and write combined
system.mem_ctrls_0.actEnergy                  2598960                       # Energy for activate commands per rank (pJ)
system.mem_ctrls_0.preEnergy                  1381380                       # Energy for precharge commands per rank (pJ)
system.mem_ctrls_0.readEnergy                 9474780                       # Energy for read commands per rank (pJ)
system.mem_ctrls_0.writeEnergy                      0                       # Energy for write commands per rank (pJ)
system.mem_ctrls_0.refreshEnergy         44868720.000000                       # Energy for refresh commands per rank (pJ)
system.mem_ctrls_0.actBackEnergy             23096400                       # Energy for active background per rank (pJ)
system.mem_ctrls_0.preBackEnergy              1801920                       # Energy for precharge background per rank (pJ)
system.mem_ctrls_0.actPowerDownEnergy       121792470                       # Energy for active power-down per rank (pJ)
system.mem_ctrls_0.prePowerDownEnergy        66640320                       # Energy for precharge power-down per rank (pJ)
system.mem_ctrls_0.selfRefreshEnergy         25282605                       # Energy for self refresh per rank (pJ)
system.mem_ctrls_0.totalEnergy              297021495                       # Total energy per rank (pJ)
system.mem_ctrls_0.averagePower            513.712485                       # Core power per rank (mW)
system.mem_ctrls_0.totalIdleTime            509403500                       # Total Idle time Per DRAM Rank
system.mem_ctrls_0.memoryStateTime::IDLE      2984000                       # Time in different power states
system.mem_ctrls_0.memoryStateTime::REF      19052000                       # Time in different power states
system.mem_ctrls_0.memoryStateTime::SREF     82025850                       # Time in different power states
system.mem_ctrls_0.memoryStateTime::PRE_PDN    173535500                       # Time in different power states
system.mem_ctrls_0.memoryStateTime::ACT      33489500                       # Time in different power states
system.mem_ctrls_0.memoryStateTime::ACT_PDN    267098750                       # Time in different power states
system.mem_ctrls_1.actEnergy                  2049180                       # Energy for activate commands per rank (pJ)
system.mem_ctrls_1.preEnergy                  1089165                       # Energy for precharge commands per rank (pJ)
system.mem_ctrls_1.readEnergy                 6083280                       # Energy for read commands per rank (pJ)
system.mem_ctrls_1.writeEnergy                      0                       # Energy for write commands per rank (pJ)
system.mem_ctrls_1.refreshEnergy         44254080.000000                       # Energy for refresh commands per rank (pJ)
system.mem_ctrls_1.actBackEnergy             18864150                       # Energy for active background per rank (pJ)
system.mem_ctrls_1.preBackEnergy              2071680                       # Energy for precharge background per rank (pJ)
system.mem_ctrls_1.actPowerDownEnergy       122067780                       # Energy for active power-down per rank (pJ)
system.mem_ctrls_1.prePowerDownEnergy        61216320                       # Energy for precharge power-down per rank (pJ)
system.mem_ctrls_1.selfRefreshEnergy         31661880                       # Energy for self refresh per rank (pJ)
system.mem_ctrls_1.totalEnergy              289357515                       # Total energy per rank (pJ)
system.mem_ctrls_1.averagePower            500.457275                       # Core power per rank (mW)
system.mem_ctrls_1.totalIdleTime            522824650                       # Total Idle time Per DRAM Rank
system.mem_ctrls_1.memoryStateTime::IDLE      3568800                       # Time in different power states
system.mem_ctrls_1.memoryStateTime::REF      18798000                       # Time in different power states
system.mem_ctrls_1.memoryStateTime::SREF    104312600                       # Time in different power states
system.mem_ctrls_1.memoryStateTime::PRE_PDN    159414400                       # Time in different power states
system.mem_ctrls_1.memoryStateTime::ACT      24363450                       # Time in different power states
system.mem_ctrls_1.memoryStateTime::ACT_PDN    267728350                       # Time in different power states
system.pwrStateResidencyTicks::UNDEFINED 1422546008000                       # Cumulative time (in ticks) in various power states
system.cpu_voltage_domain.voltage                   1                       # Voltage in Volts
system.cpu_clk_domain.clock                       400                       # Clock period in ticks
system.cpu.dtb.walker.pwrStateResidencyTicks::UNDEFINED 1422546008000                       # Cumulative time (in ticks) in various power states
system.cpu.apic_clk_domain.clock                 6400                       # Clock period in ticks
system.cpu.interrupts.pwrStateResidencyTicks::UNDEFINED 1422546008000                       # Cumulative time (in ticks) in various power states
system.cpu.itb.walker.pwrStateResidencyTicks::UNDEFINED 1422546008000                       # Cumulative time (in ticks) in various power states
system.cpu.workload.num_syscalls                    0                       # Number of system calls
system.cpu.pwrStateResidencyTicks::ON       578196000                       # Cumulative time (in ticks) in various power states
system.cpu.numCycles                               26                       # number of cpu cycles simulated
system.cpu.numWorkItemsStarted                      0                       # number of work items this cpu started
system.cpu.numWorkItemsCompleted                    0                       # number of work items this cpu completed
system.cpu.committedInsts                          10                       # Number of instructions committed
system.cpu.committedOps                            19                       # Number of ops (including micro ops) committed
system.cpu.num_int_alu_accesses                    13                       # Number of integer alu accesses
system.cpu.num_fp_alu_accesses                     11                       # Number of float alu accesses
system.cpu.num_func_calls                           0                       # number of times a function call or return occured
system.cpu.num_conditional_control_insts            1                       # number of instructions that are conditional controls
system.cpu.num_int_insts                           13                       # number of integer instructions
system.cpu.num_fp_insts                            11                       # number of float instructions
system.cpu.num_int_register_reads                  31                       # number of times the integer registers were read
system.cpu.num_int_register_writes                  7                       # number of times the integer registers were written
system.cpu.num_fp_register_reads                   10                       # number of times the floating registers were read
system.cpu.num_fp_register_writes                  11                       # number of times the floating registers were written
system.cpu.num_cc_register_reads                    6                       # number of times the CC registers were read
system.cpu.num_cc_register_writes                   2                       # number of times the CC registers were written
system.cpu.num_mem_refs                             8                       # number of memory refs
system.cpu.num_load_insts                           8                       # Number of load instructions
system.cpu.num_store_insts                          0                       # Number of store instructions
system.cpu.num_idle_cycles                          0                       # Number of idle cycles
system.cpu.num_busy_cycles                         26                       # Number of busy cycles
system.cpu.not_idle_fraction                        1                       # Percentage of non-idle cycles
system.cpu.idle_fraction                            0                       # Percentage of idle cycles
system.cpu.Branches                                 1                       # Number of branches fetched
system.cpu.op_class::No_OpClass                     0      0.00%      0.00% # Class of executed instruction
system.cpu.op_class::IntAlu                         5     26.32%     26.32% # Class of executed instruction
system.cpu.op_class::IntMult                        0      0.00%     26.32% # Class of executed instruction
system.cpu.op_class::IntDiv                         0      0.00%     26.32% # Class of executed instruction
system.cpu.op_class::FloatAdd                       6     31.58%     57.89% # Class of executed instruction
system.cpu.op_class::FloatCmp                       0      0.00%     57.89% # Class of executed instruction
system.cpu.op_class::FloatCvt                       0      0.00%     57.89% # Class of executed instruction
system.cpu.op_class::FloatMult                      0      0.00%     57.89% # Class of executed instruction
system.cpu.op_class::FloatMultAcc                   0      0.00%     57.89% # Class of executed instruction
system.cpu.op_class::FloatDiv                       0      0.00%     57.89% # Class of executed instruction
system.cpu.op_class::FloatMisc                      0      0.00%     57.89% # Class of executed instruction
system.cpu.op_class::FloatSqrt                      0      0.00%     57.89% # Class of executed instruction
system.cpu.op_class::SimdAdd                        0      0.00%     57.89% # Class of executed instruction
system.cpu.op_class::SimdAddAcc                     0      0.00%     57.89% # Class of executed instruction
system.cpu.op_class::SimdAlu                        0      0.00%     57.89% # Class of executed instruction
system.cpu.op_class::SimdCmp                        0      0.00%     57.89% # Class of executed instruction
system.cpu.op_class::SimdCvt                        0      0.00%     57.89% # Class of executed instruction
system.cpu.op_class::SimdMisc                       0      0.00%     57.89% # Class of executed instruction
system.cpu.op_class::SimdMult                       0      0.00%     57.89% # Class of executed instruction
system.cpu.op_class::SimdMultAcc                    0      0.00%     57.89% # Class of executed instruction
system.cpu.op_class::SimdShift                      0      0.00%     57.89% # Class of executed instruction
system.cpu.op_class::SimdShiftAcc                   0      0.00%     57.89% # Class of executed instruction
system.cpu.op_class::SimdSqrt                       0      0.00%     57.89% # Class of executed instruction
system.cpu.op_class::SimdFloatAdd                   0      0.00%     57.89% # Class of executed instruction
system.cpu.op_class::SimdFloatAlu                   0      0.00%     57.89% # Class of executed instruction
system.cpu.op_class::SimdFloatCmp                   0      0.00%     57.89% # Class of executed instruction
system.cpu.op_class::SimdFloatCvt                   0      0.00%     57.89% # Class of executed instruction
system.cpu.op_class::SimdFloatDiv                   0      0.00%     57.89% # Class of executed instruction
system.cpu.op_class::SimdFloatMisc                  0      0.00%     57.89% # Class of executed instruction
system.cpu.op_class::SimdFloatMult                  0      0.00%     57.89% # Class of executed instruction
system.cpu.op_class::SimdFloatMultAcc               0      0.00%     57.89% # Class of executed instruction
system.cpu.op_class::SimdFloatSqrt                  0      0.00%     57.89% # Class of executed instruction
system.cpu.op_class::MemRead                        3     15.79%     73.68% # Class of executed instruction
system.cpu.op_class::MemWrite                       0      0.00%     73.68% # Class of executed instruction
system.cpu.op_class::FloatMemRead                   5     26.32%    100.00% # Class of executed instruction
system.cpu.op_class::FloatMemWrite                  0      0.00%    100.00% # Class of executed instruction
system.cpu.op_class::IprAccess                      0      0.00%    100.00% # Class of executed instruction
system.cpu.op_class::InstPrefetch                   0      0.00%    100.00% # Class of executed instruction
system.cpu.op_class::total                         19                       # Class of executed instruction
system.cpu.dcache.tags.pwrStateResidencyTicks::UNDEFINED 1422546008000                       # Cumulative time (in ticks) in various power states
system.cpu.dcache.tags.replacements             15496                       # number of replacements
system.cpu.dcache.tags.tagsinuse           493.716371                       # Cycle average of tags in use
system.cpu.dcache.tags.total_refs              392260                       # Total number of references to valid blocks.
system.cpu.dcache.tags.sampled_refs             15496                       # Sample count of references to valid blocks.
system.cpu.dcache.tags.avg_refs             25.313629                       # Average number of references to valid blocks.
system.cpu.dcache.tags.warmup_cycle      1422074844400                       # Cycle when the warmup percentage was hit.
system.cpu.dcache.tags.occ_blocks::cpu.data     1.684160                       # Average occupied blocks per requestor
system.cpu.dcache.tags.occ_blocks::switch_cpus.data   492.032211                       # Average occupied blocks per requestor
system.cpu.dcache.tags.occ_percent::cpu.data     0.003289                       # Average percentage of cache occupancy
system.cpu.dcache.tags.occ_percent::switch_cpus.data     0.961000                       # Average percentage of cache occupancy
system.cpu.dcache.tags.occ_percent::total     0.964290                       # Average percentage of cache occupancy
system.cpu.dcache.tags.occ_task_id_blocks::1024          512                       # Occupied blocks per task id
system.cpu.dcache.tags.age_task_id_blocks_1024::0          239                       # Occupied blocks per task id
system.cpu.dcache.tags.age_task_id_blocks_1024::1          219                       # Occupied blocks per task id
system.cpu.dcache.tags.age_task_id_blocks_1024::2           54                       # Occupied blocks per task id
system.cpu.dcache.tags.occ_task_id_percent::1024            1                       # Percentage of cache occupancy per task id
system.cpu.dcache.tags.tag_accesses           3982568                       # Number of tag accesses
system.cpu.dcache.tags.data_accesses          3982568                       # Number of data accesses
system.cpu.dcache.pwrStateResidencyTicks::UNDEFINED 1422546008000                       # Cumulative time (in ticks) in various power states
system.cpu.dcache.ReadReq_hits::cpu.data            1                       # number of ReadReq hits
system.cpu.dcache.ReadReq_hits::switch_cpus.data       330491                       # number of ReadReq hits
system.cpu.dcache.ReadReq_hits::total          330492                       # number of ReadReq hits
system.cpu.dcache.WriteReq_hits::switch_cpus.data       132536                       # number of WriteReq hits
system.cpu.dcache.WriteReq_hits::total         132536                       # number of WriteReq hits
system.cpu.dcache.demand_hits::cpu.data             1                       # number of demand (read+write) hits
system.cpu.dcache.demand_hits::switch_cpus.data       463027                       # number of demand (read+write) hits
system.cpu.dcache.demand_hits::total           463028                       # number of demand (read+write) hits
system.cpu.dcache.overall_hits::cpu.data            1                       # number of overall hits
system.cpu.dcache.overall_hits::switch_cpus.data       463027                       # number of overall hits
system.cpu.dcache.overall_hits::total          463028                       # number of overall hits
system.cpu.dcache.ReadReq_misses::cpu.data            7                       # number of ReadReq misses
system.cpu.dcache.ReadReq_misses::switch_cpus.data        31212                       # number of ReadReq misses
system.cpu.dcache.ReadReq_misses::total         31219                       # number of ReadReq misses
system.cpu.dcache.WriteReq_misses::switch_cpus.data         1573                       # number of WriteReq misses
system.cpu.dcache.WriteReq_misses::total         1573                       # number of WriteReq misses
system.cpu.dcache.demand_misses::cpu.data            7                       # number of demand (read+write) misses
system.cpu.dcache.demand_misses::switch_cpus.data        32785                       # number of demand (read+write) misses
system.cpu.dcache.demand_misses::total          32792                       # number of demand (read+write) misses
system.cpu.dcache.overall_misses::cpu.data            7                       # number of overall misses
system.cpu.dcache.overall_misses::switch_cpus.data        32785                       # number of overall misses
system.cpu.dcache.overall_misses::total         32792                       # number of overall misses
system.cpu.dcache.ReadReq_miss_latency::switch_cpus.data    529450400                       # number of ReadReq miss cycles
system.cpu.dcache.ReadReq_miss_latency::total    529450400                       # number of ReadReq miss cycles
system.cpu.dcache.WriteReq_miss_latency::switch_cpus.data     28817999                       # number of WriteReq miss cycles
system.cpu.dcache.WriteReq_miss_latency::total     28817999                       # number of WriteReq miss cycles
system.cpu.dcache.demand_miss_latency::switch_cpus.data    558268399                       # number of demand (read+write) miss cycles
system.cpu.dcache.demand_miss_latency::total    558268399                       # number of demand (read+write) miss cycles
system.cpu.dcache.overall_miss_latency::switch_cpus.data    558268399                       # number of overall miss cycles
system.cpu.dcache.overall_miss_latency::total    558268399                       # number of overall miss cycles
system.cpu.dcache.ReadReq_accesses::cpu.data            8                       # number of ReadReq accesses(hits+misses)
system.cpu.dcache.ReadReq_accesses::switch_cpus.data       361703                       # number of ReadReq accesses(hits+misses)
system.cpu.dcache.ReadReq_accesses::total       361711                       # number of ReadReq accesses(hits+misses)
system.cpu.dcache.WriteReq_accesses::switch_cpus.data       134109                       # number of WriteReq accesses(hits+misses)
system.cpu.dcache.WriteReq_accesses::total       134109                       # number of WriteReq accesses(hits+misses)
system.cpu.dcache.demand_accesses::cpu.data            8                       # number of demand (read+write) accesses
system.cpu.dcache.demand_accesses::switch_cpus.data       495812                       # number of demand (read+write) accesses
system.cpu.dcache.demand_accesses::total       495820                       # number of demand (read+write) accesses
system.cpu.dcache.overall_accesses::cpu.data            8                       # number of overall (read+write) accesses
system.cpu.dcache.overall_accesses::switch_cpus.data       495812                       # number of overall (read+write) accesses
system.cpu.dcache.overall_accesses::total       495820                       # number of overall (read+write) accesses
system.cpu.dcache.ReadReq_miss_rate::cpu.data     0.875000                       # miss rate for ReadReq accesses
system.cpu.dcache.ReadReq_miss_rate::switch_cpus.data     0.086292                       # miss rate for ReadReq accesses
system.cpu.dcache.ReadReq_miss_rate::total     0.086309                       # miss rate for ReadReq accesses
system.cpu.dcache.WriteReq_miss_rate::switch_cpus.data     0.011729                       # miss rate for WriteReq accesses
system.cpu.dcache.WriteReq_miss_rate::total     0.011729                       # miss rate for WriteReq accesses
system.cpu.dcache.demand_miss_rate::cpu.data     0.875000                       # miss rate for demand accesses
system.cpu.dcache.demand_miss_rate::switch_cpus.data     0.066124                       # miss rate for demand accesses
system.cpu.dcache.demand_miss_rate::total     0.066137                       # miss rate for demand accesses
system.cpu.dcache.overall_miss_rate::cpu.data     0.875000                       # miss rate for overall accesses
system.cpu.dcache.overall_miss_rate::switch_cpus.data     0.066124                       # miss rate for overall accesses
system.cpu.dcache.overall_miss_rate::total     0.066137                       # miss rate for overall accesses
system.cpu.dcache.ReadReq_avg_miss_latency::switch_cpus.data 16963.039856                       # average ReadReq miss latency
system.cpu.dcache.ReadReq_avg_miss_latency::total 16959.236362                       # average ReadReq miss latency
system.cpu.dcache.WriteReq_avg_miss_latency::switch_cpus.data 18320.406230                       # average WriteReq miss latency
system.cpu.dcache.WriteReq_avg_miss_latency::total 18320.406230                       # average WriteReq miss latency
system.cpu.dcache.demand_avg_miss_latency::switch_cpus.data 17028.165289                       # average overall miss latency
system.cpu.dcache.demand_avg_miss_latency::total 17024.530343                       # average overall miss latency
system.cpu.dcache.overall_avg_miss_latency::switch_cpus.data 17028.165289                       # average overall miss latency
system.cpu.dcache.overall_avg_miss_latency::total 17024.530343                       # average overall miss latency
system.cpu.dcache.blocked_cycles::no_mshrs         9222                       # number of cycles access was blocked
system.cpu.dcache.blocked_cycles::no_targets            0                       # number of cycles access was blocked
system.cpu.dcache.blocked::no_mshrs               305                       # number of cycles access was blocked
system.cpu.dcache.blocked::no_targets               0                       # number of cycles access was blocked
system.cpu.dcache.avg_blocked_cycles::no_mshrs    30.236066                       # average number of cycles each access was blocked
system.cpu.dcache.avg_blocked_cycles::no_targets          nan                       # average number of cycles each access was blocked
system.cpu.dcache.writebacks::writebacks         2522                       # number of writebacks
system.cpu.dcache.writebacks::total              2522                       # number of writebacks
system.cpu.dcache.ReadReq_mshr_hits::switch_cpus.data        16726                       # number of ReadReq MSHR hits
system.cpu.dcache.ReadReq_mshr_hits::total        16726                       # number of ReadReq MSHR hits
system.cpu.dcache.WriteReq_mshr_hits::switch_cpus.data           42                       # number of WriteReq MSHR hits
system.cpu.dcache.WriteReq_mshr_hits::total           42                       # number of WriteReq MSHR hits
system.cpu.dcache.demand_mshr_hits::switch_cpus.data        16768                       # number of demand (read+write) MSHR hits
system.cpu.dcache.demand_mshr_hits::total        16768                       # number of demand (read+write) MSHR hits
system.cpu.dcache.overall_mshr_hits::switch_cpus.data        16768                       # number of overall MSHR hits
system.cpu.dcache.overall_mshr_hits::total        16768                       # number of overall MSHR hits
system.cpu.dcache.ReadReq_mshr_misses::switch_cpus.data        14486                       # number of ReadReq MSHR misses
system.cpu.dcache.ReadReq_mshr_misses::total        14486                       # number of ReadReq MSHR misses
system.cpu.dcache.WriteReq_mshr_misses::switch_cpus.data         1531                       # number of WriteReq MSHR misses
system.cpu.dcache.WriteReq_mshr_misses::total         1531                       # number of WriteReq MSHR misses
system.cpu.dcache.demand_mshr_misses::switch_cpus.data        16017                       # number of demand (read+write) MSHR misses
system.cpu.dcache.demand_mshr_misses::total        16017                       # number of demand (read+write) MSHR misses
system.cpu.dcache.overall_mshr_misses::switch_cpus.data        16017                       # number of overall MSHR misses
system.cpu.dcache.overall_mshr_misses::total        16017                       # number of overall MSHR misses
system.cpu.dcache.ReadReq_mshr_miss_latency::switch_cpus.data    238618800                       # number of ReadReq MSHR miss cycles
system.cpu.dcache.ReadReq_mshr_miss_latency::total    238618800                       # number of ReadReq MSHR miss cycles
system.cpu.dcache.WriteReq_mshr_miss_latency::switch_cpus.data     26868399                       # number of WriteReq MSHR miss cycles
system.cpu.dcache.WriteReq_mshr_miss_latency::total     26868399                       # number of WriteReq MSHR miss cycles
system.cpu.dcache.demand_mshr_miss_latency::switch_cpus.data    265487199                       # number of demand (read+write) MSHR miss cycles
system.cpu.dcache.demand_mshr_miss_latency::total    265487199                       # number of demand (read+write) MSHR miss cycles
system.cpu.dcache.overall_mshr_miss_latency::switch_cpus.data    265487199                       # number of overall MSHR miss cycles
system.cpu.dcache.overall_mshr_miss_latency::total    265487199                       # number of overall MSHR miss cycles
system.cpu.dcache.ReadReq_mshr_miss_rate::switch_cpus.data     0.040049                       # mshr miss rate for ReadReq accesses
system.cpu.dcache.ReadReq_mshr_miss_rate::total     0.040049                       # mshr miss rate for ReadReq accesses
system.cpu.dcache.WriteReq_mshr_miss_rate::switch_cpus.data     0.011416                       # mshr miss rate for WriteReq accesses
system.cpu.dcache.WriteReq_mshr_miss_rate::total     0.011416                       # mshr miss rate for WriteReq accesses
system.cpu.dcache.demand_mshr_miss_rate::switch_cpus.data     0.032305                       # mshr miss rate for demand accesses
system.cpu.dcache.demand_mshr_miss_rate::total     0.032304                       # mshr miss rate for demand accesses
system.cpu.dcache.overall_mshr_miss_rate::switch_cpus.data     0.032305                       # mshr miss rate for overall accesses
system.cpu.dcache.overall_mshr_miss_rate::total     0.032304                       # mshr miss rate for overall accesses
system.cpu.dcache.ReadReq_avg_mshr_miss_latency::switch_cpus.data 16472.373326                       # average ReadReq mshr miss latency
system.cpu.dcache.ReadReq_avg_mshr_miss_latency::total 16472.373326                       # average ReadReq mshr miss latency
system.cpu.dcache.WriteReq_avg_mshr_miss_latency::switch_cpus.data 17549.574788                       # average WriteReq mshr miss latency
system.cpu.dcache.WriteReq_avg_mshr_miss_latency::total 17549.574788                       # average WriteReq mshr miss latency
system.cpu.dcache.demand_avg_mshr_miss_latency::switch_cpus.data 16575.338640                       # average overall mshr miss latency
system.cpu.dcache.demand_avg_mshr_miss_latency::total 16575.338640                       # average overall mshr miss latency
system.cpu.dcache.overall_avg_mshr_miss_latency::switch_cpus.data 16575.338640                       # average overall mshr miss latency
system.cpu.dcache.overall_avg_mshr_miss_latency::total 16575.338640                       # average overall mshr miss latency
system.cpu.dtb_walker_cache.tags.pwrStateResidencyTicks::UNDEFINED 1422546008000                       # Cumulative time (in ticks) in various power states
system.cpu.dtb_walker_cache.tags.replacements            0                       # number of replacements
system.cpu.dtb_walker_cache.tags.tagsinuse            0                       # Cycle average of tags in use
system.cpu.dtb_walker_cache.tags.total_refs            0                       # Total number of references to valid blocks.
system.cpu.dtb_walker_cache.tags.sampled_refs            0                       # Sample count of references to valid blocks.
system.cpu.dtb_walker_cache.tags.avg_refs          nan                       # Average number of references to valid blocks.
system.cpu.dtb_walker_cache.tags.warmup_cycle            0                       # Cycle when the warmup percentage was hit.
system.cpu.dtb_walker_cache.tags.tag_accesses            0                       # Number of tag accesses
system.cpu.dtb_walker_cache.tags.data_accesses            0                       # Number of data accesses
system.cpu.dtb_walker_cache.pwrStateResidencyTicks::UNDEFINED 1422546008000                       # Cumulative time (in ticks) in various power states
system.cpu.dtb_walker_cache.blocked_cycles::no_mshrs            0                       # number of cycles access was blocked
system.cpu.dtb_walker_cache.blocked_cycles::no_targets            0                       # number of cycles access was blocked
system.cpu.dtb_walker_cache.blocked::no_mshrs            0                       # number of cycles access was blocked
system.cpu.dtb_walker_cache.blocked::no_targets            0                       # number of cycles access was blocked
system.cpu.dtb_walker_cache.avg_blocked_cycles::no_mshrs          nan                       # average number of cycles each access was blocked
system.cpu.dtb_walker_cache.avg_blocked_cycles::no_targets          nan                       # average number of cycles each access was blocked
system.cpu.icache.tags.pwrStateResidencyTicks::UNDEFINED 1422546008000                       # Cumulative time (in ticks) in various power states
system.cpu.icache.tags.replacements              5810                       # number of replacements
system.cpu.icache.tags.tagsinuse           481.135552                       # Cycle average of tags in use
system.cpu.icache.tags.total_refs               85633                       # Total number of references to valid blocks.
system.cpu.icache.tags.sampled_refs              5810                       # Sample count of references to valid blocks.
system.cpu.icache.tags.avg_refs             14.738898                       # Average number of references to valid blocks.
system.cpu.icache.tags.warmup_cycle      1422199601600                       # Cycle when the warmup percentage was hit.
system.cpu.icache.tags.occ_blocks::cpu.inst     0.250961                       # Average occupied blocks per requestor
system.cpu.icache.tags.occ_blocks::switch_cpus.inst   480.884591                       # Average occupied blocks per requestor
system.cpu.icache.tags.occ_percent::cpu.inst     0.000490                       # Average percentage of cache occupancy
system.cpu.icache.tags.occ_percent::switch_cpus.inst     0.939228                       # Average percentage of cache occupancy
system.cpu.icache.tags.occ_percent::total     0.939718                       # Average percentage of cache occupancy
system.cpu.icache.tags.occ_task_id_blocks::1024          512                       # Occupied blocks per task id
system.cpu.icache.tags.age_task_id_blocks_1024::0          102                       # Occupied blocks per task id
system.cpu.icache.tags.age_task_id_blocks_1024::1          276                       # Occupied blocks per task id
system.cpu.icache.tags.age_task_id_blocks_1024::2          134                       # Occupied blocks per task id
system.cpu.icache.tags.occ_task_id_percent::1024            1                       # Percentage of cache occupancy per task id
system.cpu.icache.tags.tag_accesses           1771476                       # Number of tag accesses
system.cpu.icache.tags.data_accesses          1771476                       # Number of data accesses
system.cpu.icache.pwrStateResidencyTicks::UNDEFINED 1422546008000                       # Cumulative time (in ticks) in various power states
system.cpu.icache.ReadReq_hits::cpu.inst           15                       # number of ReadReq hits
system.cpu.icache.ReadReq_hits::switch_cpus.inst       213893                       # number of ReadReq hits
system.cpu.icache.ReadReq_hits::total          213908                       # number of ReadReq hits
system.cpu.icache.demand_hits::cpu.inst            15                       # number of demand (read+write) hits
system.cpu.icache.demand_hits::switch_cpus.inst       213893                       # number of demand (read+write) hits
system.cpu.icache.demand_hits::total           213908                       # number of demand (read+write) hits
system.cpu.icache.overall_hits::cpu.inst           15                       # number of overall hits
system.cpu.icache.overall_hits::switch_cpus.inst       213893                       # number of overall hits
system.cpu.icache.overall_hits::total          213908                       # number of overall hits
system.cpu.icache.ReadReq_misses::cpu.inst            2                       # number of ReadReq misses
system.cpu.icache.ReadReq_misses::switch_cpus.inst         6732                       # number of ReadReq misses
system.cpu.icache.ReadReq_misses::total          6734                       # number of ReadReq misses
system.cpu.icache.demand_misses::cpu.inst            2                       # number of demand (read+write) misses
system.cpu.icache.demand_misses::switch_cpus.inst         6732                       # number of demand (read+write) misses
system.cpu.icache.demand_misses::total           6734                       # number of demand (read+write) misses
system.cpu.icache.overall_misses::cpu.inst            2                       # number of overall misses
system.cpu.icache.overall_misses::switch_cpus.inst         6732                       # number of overall misses
system.cpu.icache.overall_misses::total          6734                       # number of overall misses
system.cpu.icache.ReadReq_miss_latency::switch_cpus.inst    140523200                       # number of ReadReq miss cycles
system.cpu.icache.ReadReq_miss_latency::total    140523200                       # number of ReadReq miss cycles
system.cpu.icache.demand_miss_latency::switch_cpus.inst    140523200                       # number of demand (read+write) miss cycles
system.cpu.icache.demand_miss_latency::total    140523200                       # number of demand (read+write) miss cycles
system.cpu.icache.overall_miss_latency::switch_cpus.inst    140523200                       # number of overall miss cycles
system.cpu.icache.overall_miss_latency::total    140523200                       # number of overall miss cycles
system.cpu.icache.ReadReq_accesses::cpu.inst           17                       # number of ReadReq accesses(hits+misses)
system.cpu.icache.ReadReq_accesses::switch_cpus.inst       220625                       # number of ReadReq accesses(hits+misses)
system.cpu.icache.ReadReq_accesses::total       220642                       # number of ReadReq accesses(hits+misses)
system.cpu.icache.demand_accesses::cpu.inst           17                       # number of demand (read+write) accesses
system.cpu.icache.demand_accesses::switch_cpus.inst       220625                       # number of demand (read+write) accesses
system.cpu.icache.demand_accesses::total       220642                       # number of demand (read+write) accesses
system.cpu.icache.overall_accesses::cpu.inst           17                       # number of overall (read+write) accesses
system.cpu.icache.overall_accesses::switch_cpus.inst       220625                       # number of overall (read+write) accesses
system.cpu.icache.overall_accesses::total       220642                       # number of overall (read+write) accesses
system.cpu.icache.ReadReq_miss_rate::cpu.inst     0.117647                       # miss rate for ReadReq accesses
system.cpu.icache.ReadReq_miss_rate::switch_cpus.inst     0.030513                       # miss rate for ReadReq accesses
system.cpu.icache.ReadReq_miss_rate::total     0.030520                       # miss rate for ReadReq accesses
system.cpu.icache.demand_miss_rate::cpu.inst     0.117647                       # miss rate for demand accesses
system.cpu.icache.demand_miss_rate::switch_cpus.inst     0.030513                       # miss rate for demand accesses
system.cpu.icache.demand_miss_rate::total     0.030520                       # miss rate for demand accesses
system.cpu.icache.overall_miss_rate::cpu.inst     0.117647                       # miss rate for overall accesses
system.cpu.icache.overall_miss_rate::switch_cpus.inst     0.030513                       # miss rate for overall accesses
system.cpu.icache.overall_miss_rate::total     0.030520                       # miss rate for overall accesses
system.cpu.icache.ReadReq_avg_miss_latency::switch_cpus.inst 20873.915627                       # average ReadReq miss latency
system.cpu.icache.ReadReq_avg_miss_latency::total 20867.716068                       # average ReadReq miss latency
system.cpu.icache.demand_avg_miss_latency::switch_cpus.inst 20873.915627                       # average overall miss latency
system.cpu.icache.demand_avg_miss_latency::total 20867.716068                       # average overall miss latency
system.cpu.icache.overall_avg_miss_latency::switch_cpus.inst 20873.915627                       # average overall miss latency
system.cpu.icache.overall_avg_miss_latency::total 20867.716068                       # average overall miss latency
system.cpu.icache.blocked_cycles::no_mshrs          274                       # number of cycles access was blocked
system.cpu.icache.blocked_cycles::no_targets            0                       # number of cycles access was blocked
system.cpu.icache.blocked::no_mshrs                 6                       # number of cycles access was blocked
system.cpu.icache.blocked::no_targets               0                       # number of cycles access was blocked
system.cpu.icache.avg_blocked_cycles::no_mshrs    45.666667                       # average number of cycles each access was blocked
system.cpu.icache.avg_blocked_cycles::no_targets          nan                       # average number of cycles each access was blocked
system.cpu.icache.writebacks::writebacks         5810                       # number of writebacks
system.cpu.icache.writebacks::total              5810                       # number of writebacks
system.cpu.icache.ReadReq_mshr_hits::switch_cpus.inst          394                       # number of ReadReq MSHR hits
system.cpu.icache.ReadReq_mshr_hits::total          394                       # number of ReadReq MSHR hits
system.cpu.icache.demand_mshr_hits::switch_cpus.inst          394                       # number of demand (read+write) MSHR hits
system.cpu.icache.demand_mshr_hits::total          394                       # number of demand (read+write) MSHR hits
system.cpu.icache.overall_mshr_hits::switch_cpus.inst          394                       # number of overall MSHR hits
system.cpu.icache.overall_mshr_hits::total          394                       # number of overall MSHR hits
system.cpu.icache.ReadReq_mshr_misses::switch_cpus.inst         6338                       # number of ReadReq MSHR misses
system.cpu.icache.ReadReq_mshr_misses::total         6338                       # number of ReadReq MSHR misses
system.cpu.icache.demand_mshr_misses::switch_cpus.inst         6338                       # number of demand (read+write) MSHR misses
system.cpu.icache.demand_mshr_misses::total         6338                       # number of demand (read+write) MSHR misses
system.cpu.icache.overall_mshr_misses::switch_cpus.inst         6338                       # number of overall MSHR misses
system.cpu.icache.overall_mshr_misses::total         6338                       # number of overall MSHR misses
system.cpu.icache.ReadReq_mshr_miss_latency::switch_cpus.inst    125739200                       # number of ReadReq MSHR miss cycles
system.cpu.icache.ReadReq_mshr_miss_latency::total    125739200                       # number of ReadReq MSHR miss cycles
system.cpu.icache.demand_mshr_miss_latency::switch_cpus.inst    125739200                       # number of demand (read+write) MSHR miss cycles
system.cpu.icache.demand_mshr_miss_latency::total    125739200                       # number of demand (read+write) MSHR miss cycles
system.cpu.icache.overall_mshr_miss_latency::switch_cpus.inst    125739200                       # number of overall MSHR miss cycles
system.cpu.icache.overall_mshr_miss_latency::total    125739200                       # number of overall MSHR miss cycles
system.cpu.icache.ReadReq_mshr_miss_rate::switch_cpus.inst     0.028727                       # mshr miss rate for ReadReq accesses
system.cpu.icache.ReadReq_mshr_miss_rate::total     0.028725                       # mshr miss rate for ReadReq accesses
system.cpu.icache.demand_mshr_miss_rate::switch_cpus.inst     0.028727                       # mshr miss rate for demand accesses
system.cpu.icache.demand_mshr_miss_rate::total     0.028725                       # mshr miss rate for demand accesses
system.cpu.icache.overall_mshr_miss_rate::switch_cpus.inst     0.028727                       # mshr miss rate for overall accesses
system.cpu.icache.overall_mshr_miss_rate::total     0.028725                       # mshr miss rate for overall accesses
system.cpu.icache.ReadReq_avg_mshr_miss_latency::switch_cpus.inst 19838.939729                       # average ReadReq mshr miss latency
system.cpu.icache.ReadReq_avg_mshr_miss_latency::total 19838.939729                       # average ReadReq mshr miss latency
system.cpu.icache.demand_avg_mshr_miss_latency::switch_cpus.inst 19838.939729                       # average overall mshr miss latency
system.cpu.icache.demand_avg_mshr_miss_latency::total 19838.939729                       # average overall mshr miss latency
system.cpu.icache.overall_avg_mshr_miss_latency::switch_cpus.inst 19838.939729                       # average overall mshr miss latency
system.cpu.icache.overall_avg_mshr_miss_latency::total 19838.939729                       # average overall mshr miss latency
system.cpu.itb_walker_cache.tags.pwrStateResidencyTicks::UNDEFINED 1422546008000                       # Cumulative time (in ticks) in various power states
system.cpu.itb_walker_cache.tags.replacements            0                       # number of replacements
system.cpu.itb_walker_cache.tags.tagsinuse            0                       # Cycle average of tags in use
system.cpu.itb_walker_cache.tags.total_refs            0                       # Total number of references to valid blocks.
system.cpu.itb_walker_cache.tags.sampled_refs            0                       # Sample count of references to valid blocks.
system.cpu.itb_walker_cache.tags.avg_refs          nan                       # Average number of references to valid blocks.
system.cpu.itb_walker_cache.tags.warmup_cycle            0                       # Cycle when the warmup percentage was hit.
system.cpu.itb_walker_cache.tags.tag_accesses            0                       # Number of tag accesses
system.cpu.itb_walker_cache.tags.data_accesses            0                       # Number of data accesses
system.cpu.itb_walker_cache.pwrStateResidencyTicks::UNDEFINED 1422546008000                       # Cumulative time (in ticks) in various power states
system.cpu.itb_walker_cache.blocked_cycles::no_mshrs            0                       # number of cycles access was blocked
system.cpu.itb_walker_cache.blocked_cycles::no_targets            0                       # number of cycles access was blocked
system.cpu.itb_walker_cache.blocked::no_mshrs            0                       # number of cycles access was blocked
system.cpu.itb_walker_cache.blocked::no_targets            0                       # number of cycles access was blocked
system.cpu.itb_walker_cache.avg_blocked_cycles::no_mshrs          nan                       # average number of cycles each access was blocked
system.cpu.itb_walker_cache.avg_blocked_cycles::no_targets          nan                       # average number of cycles each access was blocked
system.l2.tags.pwrStateResidencyTicks::UNDEFINED 1422546008000                       # Cumulative time (in ticks) in various power states
system.l2.tags.replacements                         0                       # number of replacements
system.l2.tags.tagsinuse                  1760.317529                       # Cycle average of tags in use
system.l2.tags.total_refs                           0                       # Total number of references to valid blocks.
system.l2.tags.sampled_refs                         0                       # Sample count of references to valid blocks.
system.l2.tags.avg_refs                           nan                       # Average number of references to valid blocks.
system.l2.tags.warmup_cycle                         0                       # Cycle when the warmup percentage was hit.
system.l2.tags.occ_blocks::cpu.inst          1.999998                       # Average occupied blocks per requestor
system.l2.tags.occ_blocks::cpu.data          6.999953                       # Average occupied blocks per requestor
system.l2.tags.occ_blocks::switch_cpus.inst   717.990407                       # Average occupied blocks per requestor
system.l2.tags.occ_blocks::switch_cpus.data  1033.327172                       # Average occupied blocks per requestor
system.l2.tags.occ_percent::cpu.inst         0.000122                       # Average percentage of cache occupancy
system.l2.tags.occ_percent::cpu.data         0.000427                       # Average percentage of cache occupancy
system.l2.tags.occ_percent::switch_cpus.inst     0.043823                       # Average percentage of cache occupancy
system.l2.tags.occ_percent::switch_cpus.data     0.063069                       # Average percentage of cache occupancy
system.l2.tags.occ_percent::total            0.107441                       # Average percentage of cache occupancy
system.l2.tags.occ_task_id_blocks::1024          2188                       # Occupied blocks per task id
system.l2.tags.age_task_id_blocks_1024::1           43                       # Occupied blocks per task id
system.l2.tags.age_task_id_blocks_1024::2         2145                       # Occupied blocks per task id
system.l2.tags.occ_task_id_percent::1024     0.133545                       # Percentage of cache occupancy per task id
system.l2.tags.tag_accesses                    351252                       # Number of tag accesses
system.l2.tags.data_accesses                   351252                       # Number of data accesses
system.l2.pwrStateResidencyTicks::UNDEFINED 1422546008000                       # Cumulative time (in ticks) in various power states
system.l2.WritebackDirty_hits::writebacks         2522                       # number of WritebackDirty hits
system.l2.WritebackDirty_hits::total             2522                       # number of WritebackDirty hits
system.l2.WritebackClean_hits::writebacks         5809                       # number of WritebackClean hits
system.l2.WritebackClean_hits::total             5809                       # number of WritebackClean hits
system.l2.UpgradeReq_hits::switch_cpus.data           16                       # number of UpgradeReq hits
system.l2.UpgradeReq_hits::total                   16                       # number of UpgradeReq hits
system.l2.ReadExReq_hits::switch_cpus.data         1366                       # number of ReadExReq hits
system.l2.ReadExReq_hits::total                  1366                       # number of ReadExReq hits
system.l2.ReadCleanReq_hits::switch_cpus.inst         5483                       # number of ReadCleanReq hits
system.l2.ReadCleanReq_hits::total               5483                       # number of ReadCleanReq hits
system.l2.ReadSharedReq_hits::switch_cpus.data        13292                       # number of ReadSharedReq hits
system.l2.ReadSharedReq_hits::total             13292                       # number of ReadSharedReq hits
system.l2.demand_hits::switch_cpus.inst          5483                       # number of demand (read+write) hits
system.l2.demand_hits::switch_cpus.data         14658                       # number of demand (read+write) hits
system.l2.demand_hits::total                    20141                       # number of demand (read+write) hits
system.l2.overall_hits::switch_cpus.inst         5483                       # number of overall hits
system.l2.overall_hits::switch_cpus.data        14658                       # number of overall hits
system.l2.overall_hits::total                   20141                       # number of overall hits
system.l2.ReadExReq_misses::switch_cpus.data          153                       # number of ReadExReq misses
system.l2.ReadExReq_misses::total                 153                       # number of ReadExReq misses
system.l2.ReadCleanReq_misses::cpu.inst             2                       # number of ReadCleanReq misses
system.l2.ReadCleanReq_misses::switch_cpus.inst          836                       # number of ReadCleanReq misses
system.l2.ReadCleanReq_misses::total              838                       # number of ReadCleanReq misses
system.l2.ReadSharedReq_misses::cpu.data            7                       # number of ReadSharedReq misses
system.l2.ReadSharedReq_misses::switch_cpus.data         1190                       # number of ReadSharedReq misses
system.l2.ReadSharedReq_misses::total            1197                       # number of ReadSharedReq misses
system.l2.demand_misses::cpu.inst                   2                       # number of demand (read+write) misses
system.l2.demand_misses::cpu.data                   7                       # number of demand (read+write) misses
system.l2.demand_misses::switch_cpus.inst          836                       # number of demand (read+write) misses
system.l2.demand_misses::switch_cpus.data         1343                       # number of demand (read+write) misses
system.l2.demand_misses::total                   2188                       # number of demand (read+write) misses
system.l2.overall_misses::cpu.inst                  2                       # number of overall misses
system.l2.overall_misses::cpu.data                  7                       # number of overall misses
system.l2.overall_misses::switch_cpus.inst          836                       # number of overall misses
system.l2.overall_misses::switch_cpus.data         1343                       # number of overall misses
system.l2.overall_misses::total                  2188                       # number of overall misses
system.l2.ReadExReq_miss_latency::switch_cpus.data     13315600                       # number of ReadExReq miss cycles
system.l2.ReadExReq_miss_latency::total      13315600                       # number of ReadExReq miss cycles
system.l2.ReadCleanReq_miss_latency::switch_cpus.inst     71906800                       # number of ReadCleanReq miss cycles
system.l2.ReadCleanReq_miss_latency::total     71906800                       # number of ReadCleanReq miss cycles
system.l2.ReadSharedReq_miss_latency::switch_cpus.data    107630000                       # number of ReadSharedReq miss cycles
system.l2.ReadSharedReq_miss_latency::total    107630000                       # number of ReadSharedReq miss cycles
system.l2.demand_miss_latency::switch_cpus.inst     71906800                       # number of demand (read+write) miss cycles
system.l2.demand_miss_latency::switch_cpus.data    120945600                       # number of demand (read+write) miss cycles
[...]
system.switch_cpus.iew.lsq.thread0.forwLoads      4313330                       # Number of loads that had data forwarded from stores
system.switch_cpus.iew.lsq.thread0.invAddrLoads            0                       # Number of loads ignored due to an invalid address
system.switch_cpus.iew.lsq.thread0.squashedLoads     11954949                       # Number of loads squashed
system.switch_cpus.iew.lsq.thread0.ignoredResponses       128056                       # Number of memory responses ignored because the instruction is squashed
system.switch_cpus.iew.lsq.thread0.memOrderViolation        11726                       # Number of memory ordering violations
system.switch_cpus.iew.lsq.thread0.squashedStores      4131113                       # Number of stores squashed
system.switch_cpus.iew.lsq.thread0.invAddrSwpfs            0                       # Number of software prefetches ignored due to an invalid address
system.switch_cpus.iew.lsq.thread0.blockedLoads            0                       # Number of blocked loads due to partial load-store forwarding
system.switch_cpus.iew.lsq.thread0.rescheduledLoads         5493                       # Number of loads that were rescheduled
system.switch_cpus.iew.lsq.thread0.cacheBlocked        92805                       # Number of times an access to memory failed due to the cache being blocked
system.switch_cpus.iew.iewIdleCycles                0                       # Number of cycles IEW is idle
system.switch_cpus.iew.iewSquashCycles        4305410                       # Number of cycles IEW is squashing
system.switch_cpus.iew.iewBlockCycles         6530876                       # Number of cycles IEW is blocking
system.switch_cpus.iew.iewUnblockCycles         78592                       # Number of cycles IEW is unblocking
system.switch_cpus.iew.iewDispatchedInsts    245018473                       # Number of instructions dispatched to IQ
system.switch_cpus.iew.iewDispSquashedInsts      4003676                       # Number of squashed instructions skipped by dispatch
system.switch_cpus.iew.iewDispLoadInsts      45091783                       # Number of dispatched load instructions
system.switch_cpus.iew.iewDispStoreInsts     18236774                       # Number of dispatched store instructions
system.switch_cpus.iew.iewDispNonSpecInsts        21041                       # Number of dispatched non-speculative instructions
system.switch_cpus.iew.iewIQFullEvents          20856                       # Number of times the IQ has become full, causing a stall
system.switch_cpus.iew.iewLSQFullEvents         47633                       # Number of times the LSQ has become full, causing a stall
system.switch_cpus.iew.memOrderViolationEvents        11726                       # Number of memory order violations
system.switch_cpus.iew.predictedTakenIncorrect      1326863                       # Number of branches that were predicted taken incorrectly
system.switch_cpus.iew.predictedNotTakenIncorrect      3247922                       # Number of branches that were predicted not taken incorrectly
system.switch_cpus.iew.branchMispredicts      4574785                       # Number of branch mispredicts detected at execute
system.switch_cpus.iew.iewExecutedInsts     223113777                       # Number of executed instructions
system.switch_cpus.iew.iewExecLoadInsts      41823580                       # Number of load instructions executed
system.switch_cpus.iew.iewExecSquashedInsts      9196295                       # Number of squashed instructions skipped in execute
system.switch_cpus.iew.exec_swp                     0                       # number of swp insts executed
system.switch_cpus.iew.exec_nop                     0                       # number of nop insts executed
system.switch_cpus.iew.exec_refs             58230629                       # number of memory reference insts executed
system.switch_cpus.iew.exec_branches         19228524                       # Number of branches executed
system.switch_cpus.iew.exec_stores           16407049                       # Number of stores executed
system.switch_cpus.iew.exec_rate             1.727140                       # Inst execution rate
system.switch_cpus.iew.wb_sent              220244467                       # cumulative count of insts sent to commit
system.switch_cpus.iew.wb_count             219286009                       # cumulative count of insts written-back
system.switch_cpus.iew.wb_producers         144462611                       # num instructions producing a value
system.switch_cpus.iew.wb_consumers         226059133                       # num instructions consuming a value
system.switch_cpus.iew.wb_rate               1.697509                       # insts written-back per cycle
system.switch_cpus.iew.wb_fanout             0.639048                       # average fanout of values written-back
system.switch_cpus.commit.commitSquashedInsts     62213481                       # The number of squashed insts skipped by commit
system.switch_cpus.commit.commitNonSpecStalls        17063                       # The number of times commit has been forced to stall to communicate backwards
system.switch_cpus.commit.branchMispredicts      4296394                       # The number of times a branch was mispredicted
system.switch_cpus.commit.committed_per_cycle::samples    117970391                       # Number of insts commited each cycle
system.switch_cpus.commit.committed_per_cycle::mean     1.549591                       # Number of insts commited each cycle
system.switch_cpus.commit.committed_per_cycle::stdev     1.400128                       # Number of insts commited each cycle
system.switch_cpus.commit.committed_per_cycle::underflows            0      0.00%      0.00% # Number of insts commited each cycle
system.switch_cpus.commit.committed_per_cycle::0     47838064     40.55%     40.55% # Number of insts commited each cycle
system.switch_cpus.commit.committed_per_cycle::1     10651681      9.03%     49.58% # Number of insts commited each cycle
system.switch_cpus.commit.committed_per_cycle::2      6287787      5.33%     54.91% # Number of insts commited each cycle
system.switch_cpus.commit.committed_per_cycle::3     53192859     45.09%    100.00% # Number of insts commited each cycle
system.switch_cpus.commit.committed_per_cycle::overflows            0      0.00%    100.00% # Number of insts commited each cycle
system.switch_cpus.commit.committed_per_cycle::min_value            0                       # Number of insts commited each cycle
system.switch_cpus.commit.committed_per_cycle::max_value            3                       # Number of insts commited each cycle
system.switch_cpus.commit.committed_per_cycle::total    117970391                       # Number of insts commited each cycle
system.switch_cpus.commit.committedInsts    100000000                       # Number of instructions committed
system.switch_cpus.commit.committedOps      182805832                       # Number of ops (including micro ops) committed
system.switch_cpus.commit.swp_count                 0                       # Number of s/w prefetches committed
system.switch_cpus.commit.refs               47242501                       # Number of memory references committed
system.switch_cpus.commit.loads              33136846                       # Number of loads committed
system.switch_cpus.commit.membars                  40                       # Number of memory barriers committed
system.switch_cpus.commit.branches           17018623                       # Number of branches committed
system.switch_cpus.commit.fp_insts           43065086                       # Number of committed floating point instructions.
system.switch_cpus.commit.int_insts         154868569                       # Number of committed integer instructions.
system.switch_cpus.commit.function_calls      2524257                       # Number of function calls committed.
system.switch_cpus.commit.op_class_0::No_OpClass       960995      0.53%      0.53% # Class of committed instruction
system.switch_cpus.commit.op_class_0::IntAlu    111735023     61.12%     61.65% # Class of committed instruction
system.switch_cpus.commit.op_class_0::IntMult        27184      0.01%     61.66% # Class of committed instruction
system.switch_cpus.commit.op_class_0::IntDiv         1757      0.00%     61.66% # Class of committed instruction
system.switch_cpus.commit.op_class_0::FloatAdd     22835027     12.49%     74.16% # Class of committed instruction
system.switch_cpus.commit.op_class_0::FloatCmp            0      0.00%     74.16% # Class of committed instruction
system.switch_cpus.commit.op_class_0::FloatCvt            0      0.00%     74.16% # Class of committed instruction
system.switch_cpus.commit.op_class_0::FloatMult            0      0.00%     74.16% # Class of committed instruction
system.switch_cpus.commit.op_class_0::FloatMultAcc            0      0.00%     74.16% # Class of committed instruction
system.switch_cpus.commit.op_class_0::FloatDiv         3345      0.00%     74.16% # Class of committed instruction
system.switch_cpus.commit.op_class_0::FloatMisc            0      0.00%     74.16% # Class of committed instruction
system.switch_cpus.commit.op_class_0::FloatSqrt            0      0.00%     74.16% # Class of committed instruction
system.switch_cpus.commit.op_class_0::SimdAdd            0      0.00%     74.16% # Class of committed instruction
system.switch_cpus.commit.op_class_0::SimdAddAcc            0      0.00%     74.16% # Class of committed instruction
system.switch_cpus.commit.op_class_0::SimdAlu            0      0.00%     74.16% # Class of committed instruction
system.switch_cpus.commit.op_class_0::SimdCmp            0      0.00%     74.16% # Class of committed instruction
system.switch_cpus.commit.op_class_0::SimdCvt            0      0.00%     74.16% # Class of committed instruction
system.switch_cpus.commit.op_class_0::SimdMisc            0      0.00%     74.16% # Class of committed instruction
system.switch_cpus.commit.op_class_0::SimdMult            0      0.00%     74.16% # Class of committed instruction
system.switch_cpus.commit.op_class_0::SimdMultAcc            0      0.00%     74.16% # Class of committed instruction
system.switch_cpus.commit.op_class_0::SimdShift            0      0.00%     74.16% # Class of committed instruction
system.switch_cpus.commit.op_class_0::SimdShiftAcc            0      0.00%     74.16% # Class of committed instruction
system.switch_cpus.commit.op_class_0::SimdSqrt            0      0.00%     74.16% # Class of committed instruction
system.switch_cpus.commit.op_class_0::SimdFloatAdd            0      0.00%     74.16% # Class of committed instruction
system.switch_cpus.commit.op_class_0::SimdFloatAlu            0      0.00%     74.16% # Class of committed instruction
system.switch_cpus.commit.op_class_0::SimdFloatCmp            0      0.00%     74.16% # Class of committed instruction
system.switch_cpus.commit.op_class_0::SimdFloatCvt            0      0.00%     74.16% # Class of committed instruction
system.switch_cpus.commit.op_class_0::SimdFloatDiv            0      0.00%     74.16% # Class of committed instruction
system.switch_cpus.commit.op_class_0::SimdFloatMisc            0      0.00%     74.16% # Class of committed instruction
system.switch_cpus.commit.op_class_0::SimdFloatMult            0      0.00%     74.16% # Class of committed instruction
system.switch_cpus.commit.op_class_0::SimdFloatMultAcc            0      0.00%     74.16% # Class of committed instruction
system.switch_cpus.commit.op_class_0::SimdFloatSqrt            0      0.00%     74.16% # Class of committed instruction
system.switch_cpus.commit.op_class_0::MemRead     19455511     10.64%     84.80% # Class of committed instruction
system.switch_cpus.commit.op_class_0::MemWrite     11852374      6.48%     91.28% # Class of committed instruction
system.switch_cpus.commit.op_class_0::FloatMemRead     13681335      7.48%     98.77% # Class of committed instruction
system.switch_cpus.commit.op_class_0::FloatMemWrite      2253281      1.23%    100.00% # Class of committed instruction
system.switch_cpus.commit.op_class_0::IprAccess            0      0.00%    100.00% # Class of committed instruction
system.switch_cpus.commit.op_class_0::InstPrefetch            0      0.00%    100.00% # Class of committed instruction
system.switch_cpus.commit.op_class_0::total    182805832                       # Class of committed instruction
system.switch_cpus.commit.bw_lim_events      53192859                       # number cycles where commit BW limit reached
system.switch_cpus.rob.rob_reads            309796845                       # The number of ROB reads
system.switch_cpus.rob.rob_writes           500019800                       # The number of ROB writes
system.switch_cpus.timesIdled                  196108                       # Number of times that the entire CPU went into an idle state and unscheduled itself
system.switch_cpus.idleCycles                 1282482                       # Total number of cycles that the CPU has spent unscheduled due to idling
system.switch_cpus.committedInsts           100000000                       # Number of Instructions Simulated
system.switch_cpus.committedOps             182805832                       # Number of Ops (including micro ops) Simulated
system.switch_cpus.cpi                       1.291811                       # CPI: Cycles Per Instruction
system.switch_cpus.cpi_total                 1.291811                       # CPI: Total CPI of All Threads
system.switch_cpus.ipc                       0.774107                       # IPC: Instructions Per Cycle
system.switch_cpus.ipc_total                 0.774107                       # IPC: Total IPC of All Threads
system.switch_cpus.int_regfile_reads        292420989                       # number of integer regfile reads
system.switch_cpus.int_regfile_writes       137761387                       # number of integer regfile writes
system.switch_cpus.fp_regfile_reads          72821180                       # number of floating regfile reads
system.switch_cpus.fp_regfile_writes         42140747                       # number of floating regfile writes
system.switch_cpus.cc_regfile_reads          79268435                       # number of cc regfile reads
system.switch_cpus.cc_regfile_writes         44344190                       # number of cc regfile writes
system.switch_cpus.misc_regfile_reads       100987354                       # number of misc regfile reads
system.switch_cpus.misc_regfile_writes          30281                       # number of misc regfile writes
system.tol2bus.snoop_filter.tot_requests      4294715                       # Total number of requests made to the snoop filter.
system.tol2bus.snoop_filter.hit_single_requests      2147375                       # Number of requests hitting in the snoop filter with a single holder of the requested data.
system.tol2bus.snoop_filter.hit_multi_requests         4837                       # Number of requests hitting in the snoop filter with multiple (>1) holders of the requested data.
system.tol2bus.snoop_filter.tot_snoops              3                       # Total number of snoops made to the snoop filter.
system.tol2bus.snoop_filter.hit_single_snoops            3                       # Number of snoops hitting in the snoop filter with a single holder of the requested data.
system.tol2bus.snoop_filter.hit_multi_snoops            0                       # Number of snoops hitting in the snoop filter with multiple (>1) holders of the requested data.
system.tol2bus.pwrStateResidencyTicks::UNDEFINED  51672426000                       # Cumulative time (in ticks) in various power states
system.tol2bus.trans_dist::ReadResp           1978268                       # Transaction distribution
system.tol2bus.trans_dist::WritebackDirty       321369                       # Transaction distribution
system.tol2bus.trans_dist::WritebackClean       492805                       # Transaction distribution
system.tol2bus.trans_dist::CleanEvict         1331027                       # Transaction distribution
system.tol2bus.trans_dist::UpgradeReq            2298                       # Transaction distribution
system.tol2bus.trans_dist::UpgradeResp           2298                       # Transaction distribution
system.tol2bus.trans_dist::ReadExReq           169107                       # Transaction distribution
system.tol2bus.trans_dist::ReadExResp          169107                       # Transaction distribution
system.tol2bus.trans_dist::ReadCleanReq        495138                       # Transaction distribution
system.tol2bus.trans_dist::ReadSharedReq      1483130                       # Transaction distribution
system.tol2bus.pkt_count_system.cpu.icache.mem_side::system.l2.cpu_side      1480786                       # Packet count per connected master and slave (bytes)
system.tol2bus.pkt_count_system.cpu.dcache.mem_side::system.l2.cpu_side      4961307                       # Packet count per connected master and slave (bytes)
system.tol2bus.pkt_count::total               6442093                       # Packet count per connected master and slave (bytes)
system.tol2bus.pkt_size_system.cpu.icache.mem_side::system.l2.cpu_side     63081472                       # Cumulative packet size per connected master and slave (bytes)
system.tol2bus.pkt_size_system.cpu.dcache.mem_side::system.l2.cpu_side    126308096                       # Cumulative packet size per connected master and slave (bytes)
system.tol2bus.pkt_size::total              189389568                       # Cumulative packet size per connected master and slave (bytes)
system.tol2bus.snoops                            2454                       # Total snoops (count)
system.tol2bus.snoopTraffic                    149568                       # Total snoop traffic (bytes)
system.tol2bus.snoop_fanout::samples          2149832                       # Request fanout histogram
system.tol2bus.snoop_fanout::mean            0.003335                       # Request fanout histogram
system.tol2bus.snoop_fanout::stdev           0.057654                       # Request fanout histogram
system.tol2bus.snoop_fanout::underflows             0      0.00%      0.00% # Request fanout histogram
system.tol2bus.snoop_fanout::0                2142662     99.67%     99.67% # Request fanout histogram
system.tol2bus.snoop_fanout::1                   7170      0.33%    100.00% # Request fanout histogram
system.tol2bus.snoop_fanout::2                      0      0.00%    100.00% # Request fanout histogram
system.tol2bus.snoop_fanout::3                      0      0.00%    100.00% # Request fanout histogram
system.tol2bus.snoop_fanout::4                      0      0.00%    100.00% # Request fanout histogram
system.tol2bus.snoop_fanout::overflows              0      0.00%    100.00% # Request fanout histogram
system.tol2bus.snoop_fanout::min_value              0                       # Request fanout histogram
system.tol2bus.snoop_fanout::max_value              1                       # Request fanout histogram
system.tol2bus.snoop_fanout::total            2149832                       # Request fanout histogram
system.tol2bus.reqLayer0.occupancy         2369198383                       # Layer occupancy (ticks)
system.tol2bus.reqLayer0.utilization              4.6                       # Layer utilization (%)
system.tol2bus.respLayer0.occupancy         594786045                       # Layer occupancy (ticks)
system.tol2bus.respLayer0.utilization             1.2                       # Layer utilization (%)
system.tol2bus.respLayer1.occupancy        1983609602                       # Layer occupancy (ticks)
system.tol2bus.respLayer1.utilization             3.8                       # Layer utilization (%)

---------- End Simulation Statistics   ----------
