
---------- Begin Simulation Statistics ----------
sim_seconds                                  0.004250                       # Number of seconds simulated
sim_ticks                                  4249505476                       # Number of ticks simulated
final_tick                               2539344332476                       # Number of ticks from beginning of simulation (restored from checkpoints and never reset)
sim_freq                                 1000000000000                       # Frequency of simulated ticks
host_inst_rate                                 134857                       # Simulator instruction rate (inst/s)
host_op_rate                                   163748                       # Simulator op (including micro ops) rate (op/s)
host_tick_rate                              143052374                       # Simulator tick rate (ticks/s)
host_mem_usage                                5353492                       # Number of bytes of host memory used
host_seconds                                    29.71                       # Real time elapsed on the host
sim_insts                                     4006058                       # Number of instructions simulated
sim_ops                                       4864288                       # Number of ops (including micro ops) simulated
system.voltage_domain.voltage                       1                       # Voltage in Volts
system.clk_domain.clock                          1000                       # Clock period in ticks
system.mem_ctrls.pwrStateResidencyTicks::UNDEFINED 2539344332476                       # Cumulative time (in ticks) in various power states
system.mem_ctrls.bytes_read::cpu0.inst            128                       # Number of bytes read from this memory
system.mem_ctrls.bytes_read::cpu0.data             64                       # Number of bytes read from this memory
system.mem_ctrls.bytes_read::cpu1.inst            128                       # Number of bytes read from this memory
system.mem_ctrls.bytes_read::cpu1.data             64                       # Number of bytes read from this memory
system.mem_ctrls.bytes_read::cpu2.inst            128                       # Number of bytes read from this memory
system.mem_ctrls.bytes_read::cpu2.data             64                       # Number of bytes read from this memory
system.mem_ctrls.bytes_read::cpu3.inst            128                       # Number of bytes read from this memory
system.mem_ctrls.bytes_read::cpu3.data             64                       # Number of bytes read from this memory
system.mem_ctrls.bytes_read::switch_cpus0.inst         2112                       # Number of bytes read from this memory
system.mem_ctrls.bytes_read::switch_cpus0.data      1909376                       # Number of bytes read from this memory
system.mem_ctrls.bytes_read::switch_cpus1.inst         2112                       # Number of bytes read from this memory
system.mem_ctrls.bytes_read::switch_cpus1.data      1912704                       # Number of bytes read from this memory
system.mem_ctrls.bytes_read::switch_cpus2.inst         2112                       # Number of bytes read from this memory
system.mem_ctrls.bytes_read::switch_cpus2.data      1912896                       # Number of bytes read from this memory
system.mem_ctrls.bytes_read::switch_cpus3.inst         2112                       # Number of bytes read from this memory
system.mem_ctrls.bytes_read::switch_cpus3.data      1913920                       # Number of bytes read from this memory
system.mem_ctrls.bytes_read::total            7658112                       # Number of bytes read from this memory
system.mem_ctrls.bytes_inst_read::cpu0.inst          128                       # Number of instructions bytes read from this memory
system.mem_ctrls.bytes_inst_read::cpu1.inst          128                       # Number of instructions bytes read from this memory
system.mem_ctrls.bytes_inst_read::cpu2.inst          128                       # Number of instructions bytes read from this memory
system.mem_ctrls.bytes_inst_read::cpu3.inst          128                       # Number of instructions bytes read from this memory
system.mem_ctrls.bytes_inst_read::switch_cpus0.inst         2112                       # Number of instructions bytes read from this memory
system.mem_ctrls.bytes_inst_read::switch_cpus1.inst         2112                       # Number of instructions bytes read from this memory
system.mem_ctrls.bytes_inst_read::switch_cpus2.inst         2112                       # Number of instructions bytes read from this memory
system.mem_ctrls.bytes_inst_read::switch_cpus3.inst         2112                       # Number of instructions bytes read from this memory
system.mem_ctrls.bytes_inst_read::total          8960                       # Number of instructions bytes read from this memory
system.mem_ctrls.bytes_written::writebacks      4944064                       # Number of bytes written to this memory
system.mem_ctrls.bytes_written::total         4944064                       # Number of bytes written to this memory
system.mem_ctrls.num_reads::cpu0.inst               2                       # Number of read requests responded to by this memory
system.mem_ctrls.num_reads::cpu0.data               1                       # Number of read requests responded to by this memory
system.mem_ctrls.num_reads::cpu1.inst               2                       # Number of read requests responded to by this memory
system.mem_ctrls.num_reads::cpu1.data               1                       # Number of read requests responded to by this memory
system.mem_ctrls.num_reads::cpu2.inst               2                       # Number of read requests responded to by this memory
system.mem_ctrls.num_reads::cpu2.data               1                       # Number of read requests responded to by this memory
system.mem_ctrls.num_reads::cpu3.inst               2                       # Number of read requests responded to by this memory
system.mem_ctrls.num_reads::cpu3.data               1                       # Number of read requests responded to by this memory
system.mem_ctrls.num_reads::switch_cpus0.inst           33                       # Number of read requests responded to by this memory
system.mem_ctrls.num_reads::switch_cpus0.data        29834                       # Number of read requests responded to by this memory
system.mem_ctrls.num_reads::switch_cpus1.inst           33                       # Number of read requests responded to by this memory
system.mem_ctrls.num_reads::switch_cpus1.data        29886                       # Number of read requests responded to by this memory
system.mem_ctrls.num_reads::switch_cpus2.inst           33                       # Number of read requests responded to by this memory
system.mem_ctrls.num_reads::switch_cpus2.data        29889                       # Number of read requests responded to by this memory
system.mem_ctrls.num_reads::switch_cpus3.inst           33                       # Number of read requests responded to by this memory
system.mem_ctrls.num_reads::switch_cpus3.data        29905                       # Number of read requests responded to by this memory
system.mem_ctrls.num_reads::total              119658                       # Number of read requests responded to by this memory
system.mem_ctrls.num_writes::writebacks         77251                       # Number of write requests responded to by this memory
system.mem_ctrls.num_writes::total              77251                       # Number of write requests responded to by this memory
system.mem_ctrls.bw_read::cpu0.inst             30121                       # Total read bandwidth from this memory (bytes/s)
system.mem_ctrls.bw_read::cpu0.data             15061                       # Total read bandwidth from this memory (bytes/s)
system.mem_ctrls.bw_read::cpu1.inst             30121                       # Total read bandwidth from this memory (bytes/s)
system.mem_ctrls.bw_read::cpu1.data             15061                       # Total read bandwidth from this memory (bytes/s)
system.mem_ctrls.bw_read::cpu2.inst             30121                       # Total read bandwidth from this memory (bytes/s)
system.mem_ctrls.bw_read::cpu2.data             15061                       # Total read bandwidth from this memory (bytes/s)
system.mem_ctrls.bw_read::cpu3.inst             30121                       # Total read bandwidth from this memory (bytes/s)
system.mem_ctrls.bw_read::cpu3.data             15061                       # Total read bandwidth from this memory (bytes/s)
system.mem_ctrls.bw_read::switch_cpus0.inst       496999                       # Total read bandwidth from this memory (bytes/s)
system.mem_ctrls.bw_read::switch_cpus0.data    449317223                       # Total read bandwidth from this memory (bytes/s)
system.mem_ctrls.bw_read::switch_cpus1.inst       496999                       # Total read bandwidth from this memory (bytes/s)
system.mem_ctrls.bw_read::switch_cpus1.data    450100373                       # Total read bandwidth from this memory (bytes/s)
system.mem_ctrls.bw_read::switch_cpus2.inst       496999                       # Total read bandwidth from this memory (bytes/s)
system.mem_ctrls.bw_read::switch_cpus2.data    450145555                       # Total read bandwidth from this memory (bytes/s)
system.mem_ctrls.bw_read::switch_cpus3.inst       496999                       # Total read bandwidth from this memory (bytes/s)
system.mem_ctrls.bw_read::switch_cpus3.data    450386524                       # Total read bandwidth from this memory (bytes/s)
system.mem_ctrls.bw_read::total            1802118398                       # Total read bandwidth from this memory (bytes/s)
system.mem_ctrls.bw_inst_read::cpu0.inst        30121                       # Instruction read bandwidth from this memory (bytes/s)
system.mem_ctrls.bw_inst_read::cpu1.inst        30121                       # Instruction read bandwidth from this memory (bytes/s)
system.mem_ctrls.bw_inst_read::cpu2.inst        30121                       # Instruction read bandwidth from this memory (bytes/s)
system.mem_ctrls.bw_inst_read::cpu3.inst        30121                       # Instruction read bandwidth from this memory (bytes/s)
system.mem_ctrls.bw_inst_read::switch_cpus0.inst       496999                       # Instruction read bandwidth from this memory (bytes/s)
system.mem_ctrls.bw_inst_read::switch_cpus1.inst       496999                       # Instruction read bandwidth from this memory (bytes/s)
system.mem_ctrls.bw_inst_read::switch_cpus2.inst       496999                       # Instruction read bandwidth from this memory (bytes/s)
system.mem_ctrls.bw_inst_read::switch_cpus3.inst       496999                       # Instruction read bandwidth from this memory (bytes/s)
system.mem_ctrls.bw_inst_read::total          2108481                       # Instruction read bandwidth from this memory (bytes/s)
system.mem_ctrls.bw_write::writebacks      1163444553                       # Write bandwidth from this memory (bytes/s)
system.mem_ctrls.bw_write::total           1163444553                       # Write bandwidth from this memory (bytes/s)
system.mem_ctrls.bw_total::writebacks      1163444553                       # Total bandwidth to/from this memory (bytes/s)
system.mem_ctrls.bw_total::cpu0.inst            30121                       # Total bandwidth to/from this memory (bytes/s)
system.mem_ctrls.bw_total::cpu0.data            15061                       # Total bandwidth to/from this memory (bytes/s)
system.mem_ctrls.bw_total::cpu1.inst            30121                       # Total bandwidth to/from this memory (bytes/s)
system.mem_ctrls.bw_total::cpu1.data            15061                       # Total bandwidth to/from this memory (bytes/s)
system.mem_ctrls.bw_total::cpu2.inst            30121                       # Total bandwidth to/from this memory (bytes/s)
system.mem_ctrls.bw_total::cpu2.data            15061                       # Total bandwidth to/from this memory (bytes/s)
system.mem_ctrls.bw_total::cpu3.inst            30121                       # Total bandwidth to/from this memory (bytes/s)
system.mem_ctrls.bw_total::cpu3.data            15061                       # Total bandwidth to/from this memory (bytes/s)
system.mem_ctrls.bw_total::switch_cpus0.inst       496999                       # Total bandwidth to/from this memory (bytes/s)
system.mem_ctrls.bw_total::switch_cpus0.data    449317223                       # Total bandwidth to/from this memory (bytes/s)
system.mem_ctrls.bw_total::switch_cpus1.inst       496999                       # Total bandwidth to/from this memory (bytes/s)
system.mem_ctrls.bw_total::switch_cpus1.data    450100373                       # Total bandwidth to/from this memory (bytes/s)
system.mem_ctrls.bw_total::switch_cpus2.inst       496999                       # Total bandwidth to/from this memory (bytes/s)
system.mem_ctrls.bw_total::switch_cpus2.data    450145555                       # Total bandwidth to/from this memory (bytes/s)
system.mem_ctrls.bw_total::switch_cpus3.inst       496999                       # Total bandwidth to/from this memory (bytes/s)
system.mem_ctrls.bw_total::switch_cpus3.data    450386524                       # Total bandwidth to/from this memory (bytes/s)
system.mem_ctrls.bw_total::total           2965562951                       # Total bandwidth to/from this memory (bytes/s)
system.mem_ctrls.readReqs                      119648                       # Number of read requests accepted
system.mem_ctrls.writeReqs                      77251                       # Number of write requests accepted
system.mem_ctrls.readBursts                    119648                       # Number of DRAM read bursts, including those serviced by the write queue
system.mem_ctrls.writeBursts                    77251                       # Number of DRAM write bursts, including those merged in the write queue
system.mem_ctrls.bytesReadDRAM                7657472                       # Total number of bytes read from DRAM
system.mem_ctrls.bytesReadWrQ                       0                       # Total number of bytes read from write queue
system.mem_ctrls.bytesWritten                 4942720                       # Total number of bytes written to DRAM
system.mem_ctrls.bytesReadSys                 7657472                       # Total read bytes from the system interface side
system.mem_ctrls.bytesWrittenSys              4944064                       # Total written bytes from the system interface side
system.mem_ctrls.servicedByWrQ                      0                       # Number of DRAM read bursts serviced by the write queue
system.mem_ctrls.mergedWrBursts                     0                       # Number of DRAM write bursts merged with an existing one
system.mem_ctrls.neitherReadNorWriteReqs            0                       # Number of requests that are neither read nor write
system.mem_ctrls.perBankRdBursts::0              7488                       # Per bank write bursts
system.mem_ctrls.perBankRdBursts::1              7470                       # Per bank write bursts
system.mem_ctrls.perBankRdBursts::2              7450                       # Per bank write bursts
system.mem_ctrls.perBankRdBursts::3              7538                       # Per bank write bursts
system.mem_ctrls.perBankRdBursts::4              7445                       # Per bank write bursts
system.mem_ctrls.perBankRdBursts::5              7475                       # Per bank write bursts
system.mem_ctrls.perBankRdBursts::6              7438                       # Per bank write bursts
system.mem_ctrls.perBankRdBursts::7              7525                       # Per bank write bursts
system.mem_ctrls.perBankRdBursts::8              7454                       # Per bank write bursts
system.mem_ctrls.perBankRdBursts::9              7488                       # Per bank write bursts
system.mem_ctrls.perBankRdBursts::10             7449                       # Per bank write bursts
system.mem_ctrls.perBankRdBursts::11             7515                       # Per bank write bursts
system.mem_ctrls.perBankRdBursts::12             7478                       # Per bank write bursts
system.mem_ctrls.perBankRdBursts::13             7471                       # Per bank write bursts
system.mem_ctrls.perBankRdBursts::14             7447                       # Per bank write bursts
system.mem_ctrls.perBankRdBursts::15             7517                       # Per bank write bursts
system.mem_ctrls.perBankWrBursts::0              4778                       # Per bank write bursts
system.mem_ctrls.perBankWrBursts::1              4841                       # Per bank write bursts
system.mem_ctrls.perBankWrBursts::2              4862                       # Per bank write bursts
system.mem_ctrls.perBankWrBursts::3              4813                       # Per bank write bursts
system.mem_ctrls.perBankWrBursts::4              4771                       # Per bank write bursts
system.mem_ctrls.perBankWrBursts::5              4858                       # Per bank write bursts
system.mem_ctrls.perBankWrBursts::6              4858                       # Per bank write bursts
system.mem_ctrls.perBankWrBursts::7              4834                       # Per bank write bursts
system.mem_ctrls.perBankWrBursts::8              4776                       # Per bank write bursts
system.mem_ctrls.perBankWrBursts::9              4837                       # Per bank write bursts
system.mem_ctrls.perBankWrBursts::10             4861                       # Per bank write bursts
system.mem_ctrls.perBankWrBursts::11             4819                       # Per bank write bursts
system.mem_ctrls.perBankWrBursts::12             4776                       # Per bank write bursts
system.mem_ctrls.perBankWrBursts::13             4858                       # Per bank write bursts
system.mem_ctrls.perBankWrBursts::14             4861                       # Per bank write bursts
system.mem_ctrls.perBankWrBursts::15             4827                       # Per bank write bursts
system.mem_ctrls.numRdRetry                         0                       # Number of times read queue was full causing retry
system.mem_ctrls.numWrRetry                         0                       # Number of times write queue was full causing retry
system.mem_ctrls.totGap                    4249409556                       # Total gap between requests
system.mem_ctrls.readPktSize::0                     0                       # Read request sizes (log2)
system.mem_ctrls.readPktSize::1                     0                       # Read request sizes (log2)
system.mem_ctrls.readPktSize::2                     0                       # Read request sizes (log2)
system.mem_ctrls.readPktSize::3                     0                       # Read request sizes (log2)
system.mem_ctrls.readPktSize::4                     0                       # Read request sizes (log2)
system.mem_ctrls.readPktSize::5                     0                       # Read request sizes (log2)
system.mem_ctrls.readPktSize::6                119648                       # Read request sizes (log2)
system.mem_ctrls.writePktSize::0                    0                       # Write request sizes (log2)
system.mem_ctrls.writePktSize::1                    0                       # Write request sizes (log2)
system.mem_ctrls.writePktSize::2                    0                       # Write request sizes (log2)
system.mem_ctrls.writePktSize::3                    0                       # Write request sizes (log2)
system.mem_ctrls.writePktSize::4                    0                       # Write request sizes (log2)
system.mem_ctrls.writePktSize::5                    0                       # Write request sizes (log2)
system.mem_ctrls.writePktSize::6                77251                       # Write request sizes (log2)
system.mem_ctrls.rdQLenPdf::0                   29791                       # What read queue length does an incoming req see
system.mem_ctrls.rdQLenPdf::1                   35656                       # What read queue length does an incoming req see
system.mem_ctrls.rdQLenPdf::2                   26417                       # What read queue length does an incoming req see
system.mem_ctrls.rdQLenPdf::3                   15426                       # What read queue length does an incoming req see
system.mem_ctrls.rdQLenPdf::4                    7345                       # What read queue length does an incoming req see
system.mem_ctrls.rdQLenPdf::5                    3258                       # What read queue length does an incoming req see
system.mem_ctrls.rdQLenPdf::6                    1305                       # What read queue length does an incoming req see
system.mem_ctrls.rdQLenPdf::7                     436                       # What read queue length does an incoming req see
system.mem_ctrls.rdQLenPdf::8                       9                       # What read queue length does an incoming req see
system.mem_ctrls.rdQLenPdf::9                       5                       # What read queue length does an incoming req see
system.mem_ctrls.rdQLenPdf::10                      0                       # What read queue length does an incoming req see
system.mem_ctrls.rdQLenPdf::11                      0                       # What read queue length does an incoming req see
system.mem_ctrls.rdQLenPdf::12                      0                       # What read queue length does an incoming req see
system.mem_ctrls.rdQLenPdf::13                      0                       # What read queue length does an incoming req see
system.mem_ctrls.rdQLenPdf::14                      0                       # What read queue length does an incoming req see
system.mem_ctrls.rdQLenPdf::15                      0                       # What read queue length does an incoming req see
system.mem_ctrls.rdQLenPdf::16                      0                       # What read queue length does an incoming req see
system.mem_ctrls.rdQLenPdf::17                      0                       # What read queue length does an incoming req see
system.mem_ctrls.rdQLenPdf::18                      0                       # What read queue length does an incoming req see
system.mem_ctrls.rdQLenPdf::19                      0                       # What read queue length does an incoming req see
system.mem_ctrls.rdQLenPdf::20                      0                       # What read queue length does an incoming req see
system.mem_ctrls.rdQLenPdf::21                      0                       # What read queue length does an incoming req see
system.mem_ctrls.rdQLenPdf::22                      0                       # What read queue length does an incoming req see
system.mem_ctrls.rdQLenPdf::23                      0                       # What read queue length does an incoming req see
system.mem_ctrls.rdQLenPdf::24                      0                       # What read queue length does an incoming req see
system.mem_ctrls.rdQLenPdf::25                      0                       # What read queue length does an incoming req see
system.mem_ctrls.rdQLenPdf::26                      0                       # What read queue length does an incoming req see
system.mem_ctrls.rdQLenPdf::27                      0                       # What read queue length does an incoming req see
system.mem_ctrls.rdQLenPdf::28                      0                       # What read queue length does an incoming req see
system.mem_ctrls.rdQLenPdf::29                      0                       # What read queue length does an incoming req see
system.mem_ctrls.rdQLenPdf::30                      0                       # What read queue length does an incoming req see
system.mem_ctrls.rdQLenPdf::31                      0                       # What read queue length does an incoming req see
system.mem_ctrls.wrQLenPdf::0                       1                       # What write queue length does an incoming req see
system.mem_ctrls.wrQLenPdf::1                       1                       # What write queue length does an incoming req see
system.mem_ctrls.wrQLenPdf::2                       1                       # What write queue length does an incoming req see
system.mem_ctrls.wrQLenPdf::3                       1                       # What write queue length does an incoming req see
system.mem_ctrls.wrQLenPdf::4                       1                       # What write queue length does an incoming req see
system.mem_ctrls.wrQLenPdf::5                       1                       # What write queue length does an incoming req see
system.mem_ctrls.wrQLenPdf::6                       1                       # What write queue length does an incoming req see
system.mem_ctrls.wrQLenPdf::7                       1                       # What write queue length does an incoming req see
system.mem_ctrls.wrQLenPdf::8                       1                       # What write queue length does an incoming req see
system.mem_ctrls.wrQLenPdf::9                       1                       # What write queue length does an incoming req see
system.mem_ctrls.wrQLenPdf::10                      1                       # What write queue length does an incoming req see
system.mem_ctrls.wrQLenPdf::11                      1                       # What write queue length does an incoming req see
system.mem_ctrls.wrQLenPdf::12                      1                       # What write queue length does an incoming req see
system.mem_ctrls.wrQLenPdf::13                      1                       # What write queue length does an incoming req see
system.mem_ctrls.wrQLenPdf::14                      1                       # What write queue length does an incoming req see
system.mem_ctrls.wrQLenPdf::15                     74                       # What write queue length does an incoming req see
system.mem_ctrls.wrQLenPdf::16                     87                       # What write queue length does an incoming req see
system.mem_ctrls.wrQLenPdf::17                    773                       # What write queue length does an incoming req see
system.mem_ctrls.wrQLenPdf::18                   2266                       # What write queue length does an incoming req see
system.mem_ctrls.wrQLenPdf::19                   3807                       # What write queue length does an incoming req see
system.mem_ctrls.wrQLenPdf::20                   4839                       # What write queue length does an incoming req see
system.mem_ctrls.wrQLenPdf::21                   5335                       # What write queue length does an incoming req see
system.mem_ctrls.wrQLenPdf::22                   5434                       # What write queue length does an incoming req see
system.mem_ctrls.wrQLenPdf::23                   5430                       # What write queue length does an incoming req see
system.mem_ctrls.wrQLenPdf::24                   5395                       # What write queue length does an incoming req see
system.mem_ctrls.wrQLenPdf::25                   5394                       # What write queue length does an incoming req see
system.mem_ctrls.wrQLenPdf::26                   5397                       # What write queue length does an incoming req see
system.mem_ctrls.wrQLenPdf::27                   5391                       # What write queue length does an incoming req see
system.mem_ctrls.wrQLenPdf::28                   5400                       # What write queue length does an incoming req see
system.mem_ctrls.wrQLenPdf::29                   5466                       # What write queue length does an incoming req see
system.mem_ctrls.wrQLenPdf::30                   5711                       # What write queue length does an incoming req see
system.mem_ctrls.wrQLenPdf::31                   5428                       # What write queue length does an incoming req see
system.mem_ctrls.wrQLenPdf::32                   5318                       # What write queue length does an incoming req see
system.mem_ctrls.wrQLenPdf::33                    218                       # What write queue length does an incoming req see
system.mem_ctrls.wrQLenPdf::34                     47                       # What write queue length does an incoming req see
system.mem_ctrls.wrQLenPdf::35                     16                       # What write queue length does an incoming req see
system.mem_ctrls.wrQLenPdf::36                      5                       # What write queue length does an incoming req see
system.mem_ctrls.wrQLenPdf::37                      3                       # What write queue length does an incoming req see
system.mem_ctrls.wrQLenPdf::38                      2                       # What write queue length does an incoming req see
system.mem_ctrls.wrQLenPdf::39                      0                       # What write queue length does an incoming req see
system.mem_ctrls.wrQLenPdf::40                      0                       # What write queue length does an incoming req see
system.mem_ctrls.wrQLenPdf::41                      0                       # What write queue length does an incoming req see
system.mem_ctrls.wrQLenPdf::42                      0                       # What write queue length does an incoming req see
system.mem_ctrls.wrQLenPdf::43                      0                       # What write queue length does an incoming req see
system.mem_ctrls.wrQLenPdf::44                      0                       # What write queue length does an incoming req see
system.mem_ctrls.wrQLenPdf::45                      0                       # What write queue length does an incoming req see
system.mem_ctrls.wrQLenPdf::46                      0                       # What write queue length does an incoming req see
system.mem_ctrls.wrQLenPdf::47                      0                       # What write queue length does an incoming req see
system.mem_ctrls.wrQLenPdf::48                      0                       # What write queue length does an incoming req see
system.mem_ctrls.wrQLenPdf::49                      0                       # What write queue length does an incoming req see
system.mem_ctrls.wrQLenPdf::50                      0                       # What write queue length does an incoming req see
system.mem_ctrls.wrQLenPdf::51                      0                       # What write queue length does an incoming req see
system.mem_ctrls.wrQLenPdf::52                      0                       # What write queue length does an incoming req see
system.mem_ctrls.wrQLenPdf::53                      0                       # What write queue length does an incoming req see
system.mem_ctrls.wrQLenPdf::54                      0                       # What write queue length does an incoming req see
system.mem_ctrls.wrQLenPdf::55                      0                       # What write queue length does an incoming req see
system.mem_ctrls.wrQLenPdf::56                      0                       # What write queue length does an incoming req see
system.mem_ctrls.wrQLenPdf::57                      0                       # What write queue length does an incoming req see
system.mem_ctrls.wrQLenPdf::58                      0                       # What write queue length does an incoming req see
system.mem_ctrls.wrQLenPdf::59                      0                       # What write queue length does an incoming req see
system.mem_ctrls.wrQLenPdf::60                      0                       # What write queue length does an incoming req see
system.mem_ctrls.wrQLenPdf::61                      0                       # What write queue length does an incoming req see
system.mem_ctrls.wrQLenPdf::62                      0                       # What write queue length does an incoming req see
system.mem_ctrls.wrQLenPdf::63                      0                       # What write queue length does an incoming req see
system.mem_ctrls.bytesPerActivate::samples       137302                       # Bytes accessed per row activation
system.mem_ctrls.bytesPerActivate::mean     91.764781                       # Bytes accessed per row activation
system.mem_ctrls.bytesPerActivate::gmean    83.621968                       # Bytes accessed per row activation
system.mem_ctrls.bytesPerActivate::stdev    48.295060                       # Bytes accessed per row activation
system.mem_ctrls.bytesPerActivate::64-127        91721     66.80%     66.80% # Bytes accessed per row activation
system.mem_ctrls.bytesPerActivate::128-191        34489     25.12%     91.92% # Bytes accessed per row activation
system.mem_ctrls.bytesPerActivate::192-255         9935      7.24%     99.16% # Bytes accessed per row activation
system.mem_ctrls.bytesPerActivate::256-319          554      0.40%     99.56% # Bytes accessed per row activation
system.mem_ctrls.bytesPerActivate::320-383          266      0.19%     99.75% # Bytes accessed per row activation
system.mem_ctrls.bytesPerActivate::384-447          123      0.09%     99.84% # Bytes accessed per row activation
system.mem_ctrls.bytesPerActivate::448-511           40      0.03%     99.87% # Bytes accessed per row activation
system.mem_ctrls.bytesPerActivate::512-575           32      0.02%     99.90% # Bytes accessed per row activation
system.mem_ctrls.bytesPerActivate::576-639           64      0.05%     99.94% # Bytes accessed per row activation
system.mem_ctrls.bytesPerActivate::640-703           18      0.01%     99.96% # Bytes accessed per row activation
system.mem_ctrls.bytesPerActivate::704-767            6      0.00%     99.96% # Bytes accessed per row activation
system.mem_ctrls.bytesPerActivate::768-831           18      0.01%     99.97% # Bytes accessed per row activation
system.mem_ctrls.bytesPerActivate::832-895           14      0.01%     99.98% # Bytes accessed per row activation
system.mem_ctrls.bytesPerActivate::896-959            7      0.01%     99.99% # Bytes accessed per row activation
system.mem_ctrls.bytesPerActivate::960-1023           15      0.01%    100.00% # Bytes accessed per row activation
system.mem_ctrls.bytesPerActivate::total       137302                       # Bytes accessed per row activation
system.mem_ctrls.rdPerTurnAround::samples         4804                       # Reads before turning the bus around for writes
system.mem_ctrls.rdPerTurnAround::mean      24.904246                       # Reads before turning the bus around for writes
system.mem_ctrls.rdPerTurnAround::gmean     21.388499                       # Reads before turning the bus around for writes
system.mem_ctrls.rdPerTurnAround::stdev    224.980939                       # Reads before turning the bus around for writes
system.mem_ctrls.rdPerTurnAround::0-511          4803     99.98%     99.98% # Reads before turning the bus around for writes
system.mem_ctrls.rdPerTurnAround::15360-15871            1      0.02%    100.00% # Reads before turning the bus around for writes
system.mem_ctrls.rdPerTurnAround::total          4804                       # Reads before turning the bus around for writes
system.mem_ctrls.wrPerTurnAround::samples         4804                       # Writes before turning the bus around for reads
system.mem_ctrls.wrPerTurnAround::mean      16.076187                       # Writes before turning the bus around for reads
system.mem_ctrls.wrPerTurnAround::gmean     16.068730                       # Writes before turning the bus around for reads
system.mem_ctrls.wrPerTurnAround::stdev      0.530187                       # Writes before turning the bus around for reads
system.mem_ctrls.wrPerTurnAround::16             4683     97.48%     97.48% # Writes before turning the bus around for reads
system.mem_ctrls.wrPerTurnAround::17               15      0.31%     97.79% # Writes before turning the bus around for reads
system.mem_ctrls.wrPerTurnAround::18               38      0.79%     98.58% # Writes before turning the bus around for reads
system.mem_ctrls.wrPerTurnAround::19               27      0.56%     99.15% # Writes before turning the bus around for reads
system.mem_ctrls.wrPerTurnAround::20               24      0.50%     99.65% # Writes before turning the bus around for reads
system.mem_ctrls.wrPerTurnAround::21               10      0.21%     99.85% # Writes before turning the bus around for reads
system.mem_ctrls.wrPerTurnAround::22                3      0.06%     99.92% # Writes before turning the bus around for reads
system.mem_ctrls.wrPerTurnAround::23                2      0.04%     99.96% # Writes before turning the bus around for reads
system.mem_ctrls.wrPerTurnAround::24                2      0.04%    100.00% # Writes before turning the bus around for reads
system.mem_ctrls.wrPerTurnAround::total          4804                       # Writes before turning the bus around for reads
system.mem_ctrls.totQLat                   4944099424                       # Total ticks spent queuing
system.mem_ctrls.totMemAccLat              7187499424                       # Total ticks spent from burst creation until serviced by the DRAM
system.mem_ctrls.totBusLat                  598240000                       # Total ticks spent in databus transfers
system.mem_ctrls.avgQLat                     41322.04                       # Average queueing delay per DRAM burst
system.mem_ctrls.avgBusLat                    5000.00                       # Average bus latency per DRAM burst
system.mem_ctrls.avgMemAccLat                60072.04                       # Average memory access latency per DRAM burst
system.mem_ctrls.avgRdBW                      1801.97                       # Average DRAM read bandwidth in MiByte/s
system.mem_ctrls.avgWrBW                      1163.13                       # Average achieved write bandwidth in MiByte/s
system.mem_ctrls.avgRdBWSys                   1801.97                       # Average system read bandwidth in MiByte/s
system.mem_ctrls.avgWrBWSys                   1163.44                       # Average system write bandwidth in MiByte/s
system.mem_ctrls.peakBW                      12800.00                       # Theoretical peak bandwidth in MiByte/s
system.mem_ctrls.busUtil                        23.16                       # Data bus utilization in percentage
system.mem_ctrls.busUtilRead                    14.08                       # Data bus utilization in percentage for reads
system.mem_ctrls.busUtilWrite                    9.09                       # Data bus utilization in percentage for writes
system.mem_ctrls.avgRdQLen                       2.84                       # Average read queue length when enqueuing
system.mem_ctrls.avgWrQLen                      23.78                       # Average write queue length when enqueuing
system.mem_ctrls.readRowHits                    33795                       # Number of row buffer hits during reads
system.mem_ctrls.writeRowHits                   25770                       # Number of row buffer hits during writes
system.mem_ctrls.readRowHitRate                 28.25                       # Row buffer hit rate for reads
system.mem_ctrls.writeRowHitRate                33.36                       # Row buffer hit rate for writes
system.mem_ctrls.avgGap                      21581.67                       # Average gap between requests
system.mem_ctrls.pageHitRate                    30.25                       # Row buffer hit rate, read and write combined
system.mem_ctrls_0.actEnergy                491017800                       # Energy for activate commands per rank (pJ)
system.mem_ctrls_0.preEnergy                260963175                       # Energy for precharge commands per rank (pJ)
system.mem_ctrls_0.readEnergy               427179060                       # Energy for read commands per rank (pJ)
system.mem_ctrls_0.writeEnergy              201570300                       # Energy for write commands per rank (pJ)
system.mem_ctrls_0.refreshEnergy         334978800.000000                       # Energy for refresh commands per rank (pJ)
system.mem_ctrls_0.actBackEnergy           1113458520                       # Energy for active background per rank (pJ)
system.mem_ctrls_0.preBackEnergy              6877920                       # Energy for precharge background per rank (pJ)
system.mem_ctrls_0.actPowerDownEnergy       814029540                       # Energy for active power-down per rank (pJ)
system.mem_ctrls_0.prePowerDownEnergy         1780320                       # Energy for precharge power-down per rank (pJ)
system.mem_ctrls_0.selfRefreshEnergy                0                       # Energy for self refresh per rank (pJ)
system.mem_ctrls_0.totalEnergy             3651855435                       # Total energy per rank (pJ)
system.mem_ctrls_0.averagePower            859.362215                       # Core power per rank (mW)
system.mem_ctrls_0.totalIdleTime           1789841722                       # Total Idle time Per DRAM Rank
system.mem_ctrls_0.memoryStateTime::IDLE      2378902                       # Time in different power states
system.mem_ctrls_0.memoryStateTime::REF     141700000                       # Time in different power states
system.mem_ctrls_0.memoryStateTime::SREF            0                       # Time in different power states
system.mem_ctrls_0.memoryStateTime::PRE_PDN      4622165                       # Time in different power states
system.mem_ctrls_0.memoryStateTime::ACT    2315547902                       # Time in different power states
system.mem_ctrls_0.memoryStateTime::ACT_PDN   1785246386                       # Time in different power states
system.mem_ctrls_1.actEnergy                489389880                       # Energy for activate commands per rank (pJ)
system.mem_ctrls_1.preEnergy                260094120                       # Energy for precharge commands per rank (pJ)
system.mem_ctrls_1.readEnergy               427093380                       # Energy for read commands per rank (pJ)
system.mem_ctrls_1.writeEnergy              201570300                       # Energy for write commands per rank (pJ)
system.mem_ctrls_1.refreshEnergy         334978800.000000                       # Energy for refresh commands per rank (pJ)
system.mem_ctrls_1.actBackEnergy           1113308610                       # Energy for active background per rank (pJ)
system.mem_ctrls_1.preBackEnergy              6890880                       # Energy for precharge background per rank (pJ)
system.mem_ctrls_1.actPowerDownEnergy       814305420                       # Energy for active power-down per rank (pJ)
system.mem_ctrls_1.prePowerDownEnergy         1661280                       # Energy for precharge power-down per rank (pJ)
system.mem_ctrls_1.selfRefreshEnergy                0                       # Energy for self refresh per rank (pJ)
system.mem_ctrls_1.totalEnergy             3649292670                       # Total energy per rank (pJ)
system.mem_ctrls_1.averagePower            858.759140                       # Core power per rank (mW)
system.mem_ctrls_1.totalIdleTime           1790241500                       # Total Idle time Per DRAM Rank
system.mem_ctrls_1.memoryStateTime::IDLE      2444867                       # Time in different power states
system.mem_ctrls_1.memoryStateTime::REF     141700000                       # Time in different power states
system.mem_ctrls_1.memoryStateTime::SREF            0                       # Time in different power states
system.mem_ctrls_1.memoryStateTime::PRE_PDN      4303425                       # Time in different power states
system.mem_ctrls_1.memoryStateTime::ACT    2315108988                       # Time in different power states
system.mem_ctrls_1.memoryStateTime::ACT_PDN   1785938075                       # Time in different power states
system.pwrStateResidencyTicks::UNDEFINED 2539344332476                       # Cumulative time (in ticks) in various power states
system.cpu_voltage_domain.voltage                   1                       # Voltage in Volts
system.cpu_clk_domain.clock                       833                       # Clock period in ticks
system.cpu0.dtb.walker.pwrStateResidencyTicks::UNDEFINED 2539344332476                       # Cumulative time (in ticks) in various power states
system.cpu0.apic_clk_domain.clock               13328                       # Clock period in ticks
system.cpu0.interrupts.pwrStateResidencyTicks::UNDEFINED 2539344332476                       # Cumulative time (in ticks) in various power states
system.cpu0.itb.walker.pwrStateResidencyTicks::UNDEFINED 2539344332476                       # Cumulative time (in ticks) in various power states
system.cpu0.workload.num_syscalls                   0                       # Number of system calls
system.cpu0.pwrStateResidencyTicks::ON     4249505476                       # Cumulative time (in ticks) in various power states
system.cpu0.numCycles                              12                       # number of cpu cycles simulated
system.cpu0.numWorkItemsStarted                     0                       # number of work items this cpu started
system.cpu0.numWorkItemsCompleted                   0                       # number of work items this cpu completed
system.cpu0.committedInsts                          7                       # Number of instructions committed
system.cpu0.committedOps                            8                       # Number of ops (including micro ops) committed
system.cpu0.num_int_alu_accesses                    1                       # Number of integer alu accesses
system.cpu0.num_fp_alu_accesses                     8                       # Number of float alu accesses
system.cpu0.num_func_calls                          0                       # number of times a function call or return occured
system.cpu0.num_conditional_control_insts            0                       # number of instructions that are conditional controls
system.cpu0.num_int_insts                           1                       # number of integer instructions
system.cpu0.num_fp_insts                            8                       # number of float instructions
system.cpu0.num_int_register_reads                  3                       # number of times the integer registers were read
system.cpu0.num_int_register_writes                 0                       # number of times the integer registers were written
system.cpu0.num_fp_register_reads                  20                       # number of times the floating registers were read
system.cpu0.num_fp_register_writes                  7                       # number of times the floating registers were written
system.cpu0.num_mem_refs                            1                       # number of memory refs
system.cpu0.num_load_insts                          0                       # Number of load instructions
system.cpu0.num_store_insts                         1                       # Number of store instructions
system.cpu0.num_idle_cycles                         0                       # Number of idle cycles
system.cpu0.num_busy_cycles                        12                       # Number of busy cycles
system.cpu0.not_idle_fraction                       1                       # Percentage of non-idle cycles
system.cpu0.idle_fraction                           0                       # Percentage of idle cycles
system.cpu0.op_class::No_OpClass                    0      0.00%      0.00% # Class of executed instruction
system.cpu0.op_class::IntAlu                        2     25.00%     25.00% # Class of executed instruction
system.cpu0.op_class::IntMult                       0      0.00%     25.00% # Class of executed instruction
system.cpu0.op_class::IntDiv                        0      0.00%     25.00% # Class of executed instruction
system.cpu0.op_class::FloatAdd                      5     62.50%     87.50% # Class of executed instruction
system.cpu0.op_class::FloatCmp                      0      0.00%     87.50% # Class of executed instruction
system.cpu0.op_class::FloatCvt                      0      0.00%     87.50% # Class of executed instruction
system.cpu0.op_class::FloatMult                     0      0.00%     87.50% # Class of executed instruction
system.cpu0.op_class::FloatMultAcc                  0      0.00%     87.50% # Class of executed instruction
system.cpu0.op_class::FloatDiv                      0      0.00%     87.50% # Class of executed instruction
system.cpu0.op_class::FloatMisc                     0      0.00%     87.50% # Class of executed instruction
system.cpu0.op_class::FloatSqrt                     0      0.00%     87.50% # Class of executed instruction
system.cpu0.op_class::SimdAdd                       0      0.00%     87.50% # Class of executed instruction
system.cpu0.op_class::SimdAddAcc                    0      0.00%     87.50% # Class of executed instruction
system.cpu0.op_class::SimdAlu                       0      0.00%     87.50% # Class of executed instruction
system.cpu0.op_class::SimdCmp                       0      0.00%     87.50% # Class of executed instruction
system.cpu0.op_class::SimdCvt                       0      0.00%     87.50% # Class of executed instruction
system.cpu0.op_class::SimdMisc                      0      0.00%     87.50% # Class of executed instruction
system.cpu0.op_class::SimdMult                      0      0.00%     87.50% # Class of executed instruction
system.cpu0.op_class::SimdMultAcc                   0      0.00%     87.50% # Class of executed instruction
system.cpu0.op_class::SimdShift                     0      0.00%     87.50% # Class of executed instruction
system.cpu0.op_class::SimdShiftAcc                  0      0.00%     87.50% # Class of executed instruction
system.cpu0.op_class::SimdSqrt                      0      0.00%     87.50% # Class of executed instruction
system.cpu0.op_class::SimdFloatAdd                  0      0.00%     87.50% # Class of executed instruction
system.cpu0.op_class::SimdFloatAlu                  0      0.00%     87.50% # Class of executed instruction
system.cpu0.op_class::SimdFloatCmp                  0      0.00%     87.50% # Class of executed instruction
system.cpu0.op_class::SimdFloatCvt                  0      0.00%     87.50% # Class of executed instruction
system.cpu0.op_class::SimdFloatDiv                  0      0.00%     87.50% # Class of executed instruction
system.cpu0.op_class::SimdFloatMisc                 0      0.00%     87.50% # Class of executed instruction
system.cpu0.op_class::SimdFloatMult                 0      0.00%     87.50% # Class of executed instruction
system.cpu0.op_class::SimdFloatMultAcc              0      0.00%     87.50% # Class of executed instruction
system.cpu0.op_class::SimdFloatSqrt                 0      0.00%     87.50% # Class of executed instruction
system.cpu0.op_class::MemRead                       0      0.00%     87.50% # Class of executed instruction
system.cpu0.op_class::MemWrite                      0      0.00%     87.50% # Class of executed instruction
system.cpu0.op_class::FloatMemRead                  0      0.00%     87.50% # Class of executed instruction
system.cpu0.op_class::FloatMemWrite                 1     12.50%    100.00% # Class of executed instruction
system.cpu0.op_class::IprAccess                     0      0.00%    100.00% # Class of executed instruction
system.cpu0.op_class::InstPrefetch                  0      0.00%    100.00% # Class of executed instruction
system.cpu0.op_class::total                         8                       # Class of executed instruction
system.cpu0.dcache.tags.pwrStateResidencyTicks::UNDEFINED 2539344332476                       # Cumulative time (in ticks) in various power states
system.cpu0.dcache.tags.replacements            47861                       # number of replacements
system.cpu0.dcache.tags.tagsinuse          127.785368                       # Cycle average of tags in use
system.cpu0.dcache.tags.total_refs             115087                       # Total number of references to valid blocks.
system.cpu0.dcache.tags.sampled_refs            47861                       # Sample count of references to valid blocks.
system.cpu0.dcache.tags.avg_refs             2.404609                       # Average number of references to valid blocks.
system.cpu0.dcache.tags.warmup_cycle     2535111174750                       # Cycle when the warmup percentage was hit.
system.cpu0.dcache.tags.occ_blocks::cpu0.data     0.999998                       # Average occupied blocks per requestor
system.cpu0.dcache.tags.occ_blocks::switch_cpus0.data   126.785370                       # Average occupied blocks per requestor
system.cpu0.dcache.tags.occ_percent::cpu0.data     0.007812                       # Average percentage of cache occupancy
system.cpu0.dcache.tags.occ_percent::switch_cpus0.data     0.990511                       # Average percentage of cache occupancy
system.cpu0.dcache.tags.occ_percent::total     0.998323                       # Average percentage of cache occupancy
system.cpu0.dcache.tags.occ_task_id_blocks::1024          128                       # Occupied blocks per task id
system.cpu0.dcache.tags.age_task_id_blocks_1024::0          102                       # Occupied blocks per task id
system.cpu0.dcache.tags.age_task_id_blocks_1024::1           20                       # Occupied blocks per task id
system.cpu0.dcache.tags.age_task_id_blocks_1024::3            6                       # Occupied blocks per task id
system.cpu0.dcache.tags.occ_task_id_percent::1024            1                       # Percentage of cache occupancy per task id
system.cpu0.dcache.tags.tag_accesses          2437725                       # Number of tag accesses
system.cpu0.dcache.tags.data_accesses         2437725                       # Number of data accesses
system.cpu0.dcache.pwrStateResidencyTicks::UNDEFINED 2539344332476                       # Cumulative time (in ticks) in various power states
system.cpu0.dcache.ReadReq_hits::switch_cpus0.data       189184                       # number of ReadReq hits
system.cpu0.dcache.ReadReq_hits::total         189184                       # number of ReadReq hits
system.cpu0.dcache.WriteReq_hits::switch_cpus0.data        60118                       # number of WriteReq hits
system.cpu0.dcache.WriteReq_hits::total         60118                       # number of WriteReq hits
system.cpu0.dcache.demand_hits::switch_cpus0.data       249302                       # number of demand (read+write) hits
system.cpu0.dcache.demand_hits::total          249302                       # number of demand (read+write) hits
system.cpu0.dcache.overall_hits::switch_cpus0.data       249302                       # number of overall hits
system.cpu0.dcache.overall_hits::total         249302                       # number of overall hits
system.cpu0.dcache.ReadReq_misses::switch_cpus0.data         8700                       # number of ReadReq misses
system.cpu0.dcache.ReadReq_misses::total         8700                       # number of ReadReq misses
system.cpu0.dcache.WriteReq_misses::cpu0.data            1                       # number of WriteReq misses
system.cpu0.dcache.WriteReq_misses::switch_cpus0.data        40714                       # number of WriteReq misses
system.cpu0.dcache.WriteReq_misses::total        40715                       # number of WriteReq misses
system.cpu0.dcache.demand_misses::cpu0.data            1                       # number of demand (read+write) misses
system.cpu0.dcache.demand_misses::switch_cpus0.data        49414                       # number of demand (read+write) misses
system.cpu0.dcache.demand_misses::total         49415                       # number of demand (read+write) misses
system.cpu0.dcache.overall_misses::cpu0.data            1                       # number of overall misses
system.cpu0.dcache.overall_misses::switch_cpus0.data        49414                       # number of overall misses
system.cpu0.dcache.overall_misses::total        49415                       # number of overall misses
system.cpu0.dcache.ReadReq_miss_latency::switch_cpus0.data   1119365408                       # number of ReadReq miss cycles
system.cpu0.dcache.ReadReq_miss_latency::total   1119365408                       # number of ReadReq miss cycles
system.cpu0.dcache.WriteReq_miss_latency::switch_cpus0.data   3335686025                       # number of WriteReq miss cycles
system.cpu0.dcache.WriteReq_miss_latency::total   3335686025                       # number of WriteReq miss cycles
system.cpu0.dcache.demand_miss_latency::switch_cpus0.data   4455051433                       # number of demand (read+write) miss cycles
system.cpu0.dcache.demand_miss_latency::total   4455051433                       # number of demand (read+write) miss cycles
system.cpu0.dcache.overall_miss_latency::switch_cpus0.data   4455051433                       # number of overall miss cycles
system.cpu0.dcache.overall_miss_latency::total   4455051433                       # number of overall miss cycles
system.cpu0.dcache.ReadReq_accesses::switch_cpus0.data       197884                       # number of ReadReq accesses(hits+misses)
system.cpu0.dcache.ReadReq_accesses::total       197884                       # number of ReadReq accesses(hits+misses)
system.cpu0.dcache.WriteReq_accesses::cpu0.data            1                       # number of WriteReq accesses(hits+misses)
system.cpu0.dcache.WriteReq_accesses::switch_cpus0.data       100832                       # number of WriteReq accesses(hits+misses)
system.cpu0.dcache.WriteReq_accesses::total       100833                       # number of WriteReq accesses(hits+misses)
system.cpu0.dcache.demand_accesses::cpu0.data            1                       # number of demand (read+write) accesses
system.cpu0.dcache.demand_accesses::switch_cpus0.data       298716                       # number of demand (read+write) accesses
system.cpu0.dcache.demand_accesses::total       298717                       # number of demand (read+write) accesses
system.cpu0.dcache.overall_accesses::cpu0.data            1                       # number of overall (read+write) accesses
system.cpu0.dcache.overall_accesses::switch_cpus0.data       298716                       # number of overall (read+write) accesses
system.cpu0.dcache.overall_accesses::total       298717                       # number of overall (read+write) accesses
system.cpu0.dcache.ReadReq_miss_rate::switch_cpus0.data     0.043965                       # miss rate for ReadReq accesses
system.cpu0.dcache.ReadReq_miss_rate::total     0.043965                       # miss rate for ReadReq accesses
system.cpu0.dcache.WriteReq_miss_rate::cpu0.data            1                       # miss rate for WriteReq accesses
system.cpu0.dcache.WriteReq_miss_rate::switch_cpus0.data     0.403781                       # miss rate for WriteReq accesses
system.cpu0.dcache.WriteReq_miss_rate::total     0.403786                       # miss rate for WriteReq accesses
system.cpu0.dcache.demand_miss_rate::cpu0.data            1                       # miss rate for demand accesses
system.cpu0.dcache.demand_miss_rate::switch_cpus0.data     0.165421                       # miss rate for demand accesses
system.cpu0.dcache.demand_miss_rate::total     0.165424                       # miss rate for demand accesses
system.cpu0.dcache.overall_miss_rate::cpu0.data            1                       # miss rate for overall accesses
system.cpu0.dcache.overall_miss_rate::switch_cpus0.data     0.165421                       # miss rate for overall accesses
system.cpu0.dcache.overall_miss_rate::total     0.165424                       # miss rate for overall accesses
system.cpu0.dcache.ReadReq_avg_miss_latency::switch_cpus0.data 128662.690575                       # average ReadReq miss latency
system.cpu0.dcache.ReadReq_avg_miss_latency::total 128662.690575                       # average ReadReq miss latency
system.cpu0.dcache.WriteReq_avg_miss_latency::switch_cpus0.data 81929.705384                       # average WriteReq miss latency
system.cpu0.dcache.WriteReq_avg_miss_latency::total 81927.693111                       # average WriteReq miss latency
system.cpu0.dcache.demand_avg_miss_latency::switch_cpus0.data 90157.676630                       # average overall miss latency
system.cpu0.dcache.demand_avg_miss_latency::total 90155.852130                       # average overall miss latency
system.cpu0.dcache.overall_avg_miss_latency::switch_cpus0.data 90157.676630                       # average overall miss latency
system.cpu0.dcache.overall_avg_miss_latency::total 90155.852130                       # average overall miss latency
system.cpu0.dcache.blocked_cycles::no_mshrs            0                       # number of cycles access was blocked
system.cpu0.dcache.blocked_cycles::no_targets            0                       # number of cycles access was blocked
system.cpu0.dcache.blocked::no_mshrs                0                       # number of cycles access was blocked
system.cpu0.dcache.blocked::no_targets              0                       # number of cycles access was blocked
system.cpu0.dcache.avg_blocked_cycles::no_mshrs          nan                       # average number of cycles each access was blocked
system.cpu0.dcache.avg_blocked_cycles::no_targets          nan                       # average number of cycles each access was blocked
system.cpu0.dcache.writebacks::writebacks        40610                       # number of writebacks
system.cpu0.dcache.writebacks::total            40610                       # number of writebacks
system.cpu0.dcache.ReadReq_mshr_hits::switch_cpus0.data         1425                       # number of ReadReq MSHR hits
system.cpu0.dcache.ReadReq_mshr_hits::total         1425                       # number of ReadReq MSHR hits
system.cpu0.dcache.demand_mshr_hits::switch_cpus0.data         1425                       # number of demand (read+write) MSHR hits
system.cpu0.dcache.demand_mshr_hits::total         1425                       # number of demand (read+write) MSHR hits
system.cpu0.dcache.overall_mshr_hits::switch_cpus0.data         1425                       # number of overall MSHR hits
system.cpu0.dcache.overall_mshr_hits::total         1425                       # number of overall MSHR hits
system.cpu0.dcache.ReadReq_mshr_misses::switch_cpus0.data         7275                       # number of ReadReq MSHR misses
system.cpu0.dcache.ReadReq_mshr_misses::total         7275                       # number of ReadReq MSHR misses
system.cpu0.dcache.WriteReq_mshr_misses::switch_cpus0.data        40714                       # number of WriteReq MSHR misses
system.cpu0.dcache.WriteReq_mshr_misses::total        40714                       # number of WriteReq MSHR misses
system.cpu0.dcache.demand_mshr_misses::switch_cpus0.data        47989                       # number of demand (read+write) MSHR misses
system.cpu0.dcache.demand_mshr_misses::total        47989                       # number of demand (read+write) MSHR misses
system.cpu0.dcache.overall_mshr_misses::switch_cpus0.data        47989                       # number of overall MSHR misses
system.cpu0.dcache.overall_mshr_misses::total        47989                       # number of overall MSHR misses
system.cpu0.dcache.ReadReq_mshr_miss_latency::switch_cpus0.data    936271175                       # number of ReadReq MSHR miss cycles
system.cpu0.dcache.ReadReq_mshr_miss_latency::total    936271175                       # number of ReadReq MSHR miss cycles
system.cpu0.dcache.WriteReq_mshr_miss_latency::switch_cpus0.data   3267858167                       # number of WriteReq MSHR miss cycles
system.cpu0.dcache.WriteReq_mshr_miss_latency::total   3267858167                       # number of WriteReq MSHR miss cycles
system.cpu0.dcache.demand_mshr_miss_latency::switch_cpus0.data   4204129342                       # number of demand (read+write) MSHR miss cycles
system.cpu0.dcache.demand_mshr_miss_latency::total   4204129342                       # number of demand (read+write) MSHR miss cycles
system.cpu0.dcache.overall_mshr_miss_latency::switch_cpus0.data   4204129342                       # number of overall MSHR miss cycles
system.cpu0.dcache.overall_mshr_miss_latency::total   4204129342                       # number of overall MSHR miss cycles
system.cpu0.dcache.ReadReq_mshr_miss_rate::switch_cpus0.data     0.036764                       # mshr miss rate for ReadReq accesses
system.cpu0.dcache.ReadReq_mshr_miss_rate::total     0.036764                       # mshr miss rate for ReadReq accesses
system.cpu0.dcache.WriteReq_mshr_miss_rate::switch_cpus0.data     0.403781                       # mshr miss rate for WriteReq accesses
system.cpu0.dcache.WriteReq_mshr_miss_rate::total     0.403777                       # mshr miss rate for WriteReq accesses
system.cpu0.dcache.demand_mshr_miss_rate::switch_cpus0.data     0.160651                       # mshr miss rate for demand accesses
system.cpu0.dcache.demand_mshr_miss_rate::total     0.160650                       # mshr miss rate for demand accesses
system.cpu0.dcache.overall_mshr_miss_rate::switch_cpus0.data     0.160651                       # mshr miss rate for overall accesses
system.cpu0.dcache.overall_mshr_miss_rate::total     0.160650                       # mshr miss rate for overall accesses
system.cpu0.dcache.ReadReq_avg_mshr_miss_latency::switch_cpus0.data 128697.068729                       # average ReadReq mshr miss latency
system.cpu0.dcache.ReadReq_avg_mshr_miss_latency::total 128697.068729                       # average ReadReq mshr miss latency
system.cpu0.dcache.WriteReq_avg_mshr_miss_latency::switch_cpus0.data 80263.746303                       # average WriteReq mshr miss latency
system.cpu0.dcache.WriteReq_avg_mshr_miss_latency::total 80263.746303                       # average WriteReq mshr miss latency
system.cpu0.dcache.demand_avg_mshr_miss_latency::switch_cpus0.data 87606.104357                       # average overall mshr miss latency
system.cpu0.dcache.demand_avg_mshr_miss_latency::total 87606.104357                       # average overall mshr miss latency
system.cpu0.dcache.overall_avg_mshr_miss_latency::switch_cpus0.data 87606.104357                       # average overall mshr miss latency
system.cpu0.dcache.overall_avg_mshr_miss_latency::total 87606.104357                       # average overall mshr miss latency
system.cpu0.dtb_walker_cache.tags.pwrStateResidencyTicks::UNDEFINED 2539344332476                       # Cumulative time (in ticks) in various power states
system.cpu0.dtb_walker_cache.tags.replacements            0                       # number of replacements
system.cpu0.dtb_walker_cache.tags.tagsinuse            0                       # Cycle average of tags in use
system.cpu0.dtb_walker_cache.tags.total_refs            0                       # Total number of references to valid blocks.
system.cpu0.dtb_walker_cache.tags.sampled_refs            0                       # Sample count of references to valid blocks.
system.cpu0.dtb_walker_cache.tags.avg_refs          nan                       # Average number of references to valid blocks.
system.cpu0.dtb_walker_cache.tags.warmup_cycle            0                       # Cycle when the warmup percentage was hit.
system.cpu0.dtb_walker_cache.tags.tag_accesses            0                       # Number of tag accesses
system.cpu0.dtb_walker_cache.tags.data_accesses            0                       # Number of data accesses
system.cpu0.dtb_walker_cache.pwrStateResidencyTicks::UNDEFINED 2539344332476                       # Cumulative time (in ticks) in various power states
system.cpu0.dtb_walker_cache.blocked_cycles::no_mshrs            0                       # number of cycles access was blocked
system.cpu0.dtb_walker_cache.blocked_cycles::no_targets            0                       # number of cycles access was blocked
system.cpu0.dtb_walker_cache.blocked::no_mshrs            0                       # number of cycles access was blocked
system.cpu0.dtb_walker_cache.blocked::no_targets            0                       # number of cycles access was blocked
system.cpu0.dtb_walker_cache.avg_blocked_cycles::no_mshrs          nan                       # average number of cycles each access was blocked
system.cpu0.dtb_walker_cache.avg_blocked_cycles::no_targets          nan                       # average number of cycles each access was blocked
system.cpu0.icache.tags.pwrStateResidencyTicks::UNDEFINED 2539344332476                       # Cumulative time (in ticks) in various power states
system.cpu0.icache.tags.replacements                0                       # number of replacements
system.cpu0.icache.tags.tagsinuse           34.836568                       # Cycle average of tags in use
system.cpu0.icache.tags.total_refs                  0                       # Total number of references to valid blocks.
system.cpu0.icache.tags.sampled_refs                0                       # Sample count of references to valid blocks.
system.cpu0.icache.tags.avg_refs                  nan                       # Average number of references to valid blocks.
system.cpu0.icache.tags.warmup_cycle                0                       # Cycle when the warmup percentage was hit.
system.cpu0.icache.tags.occ_blocks::cpu0.inst     1.999999                       # Average occupied blocks per requestor
system.cpu0.icache.tags.occ_blocks::switch_cpus0.inst    32.836569                       # Average occupied blocks per requestor
system.cpu0.icache.tags.occ_percent::cpu0.inst     0.015625                       # Average percentage of cache occupancy
system.cpu0.icache.tags.occ_percent::switch_cpus0.inst     0.256536                       # Average percentage of cache occupancy
system.cpu0.icache.tags.occ_percent::total     0.272161                       # Average percentage of cache occupancy
system.cpu0.icache.tags.occ_task_id_blocks::1024           35                       # Occupied blocks per task id
system.cpu0.icache.tags.age_task_id_blocks_1024::3           35                       # Occupied blocks per task id
system.cpu0.icache.tags.occ_task_id_percent::1024     0.273438                       # Percentage of cache occupancy per task id
system.cpu0.icache.tags.tag_accesses           710523                       # Number of tag accesses
system.cpu0.icache.tags.data_accesses          710523                       # Number of data accesses
system.cpu0.icache.pwrStateResidencyTicks::UNDEFINED 2539344332476                       # Cumulative time (in ticks) in various power states
system.cpu0.icache.ReadReq_hits::cpu0.inst            9                       # number of ReadReq hits
system.cpu0.icache.ReadReq_hits::switch_cpus0.inst        88767                       # number of ReadReq hits
system.cpu0.icache.ReadReq_hits::total          88776                       # number of ReadReq hits
system.cpu0.icache.demand_hits::cpu0.inst            9                       # number of demand (read+write) hits
system.cpu0.icache.demand_hits::switch_cpus0.inst        88767                       # number of demand (read+write) hits
system.cpu0.icache.demand_hits::total           88776                       # number of demand (read+write) hits
system.cpu0.icache.overall_hits::cpu0.inst            9                       # number of overall hits
system.cpu0.icache.overall_hits::switch_cpus0.inst        88767                       # number of overall hits
system.cpu0.icache.overall_hits::total          88776                       # number of overall hits
system.cpu0.icache.ReadReq_misses::cpu0.inst            2                       # number of ReadReq misses
system.cpu0.icache.ReadReq_misses::switch_cpus0.inst           33                       # number of ReadReq misses
system.cpu0.icache.ReadReq_misses::total           35                       # number of ReadReq misses
system.cpu0.icache.demand_misses::cpu0.inst            2                       # number of demand (read+write) misses
system.cpu0.icache.demand_misses::switch_cpus0.inst           33                       # number of demand (read+write) misses
system.cpu0.icache.demand_misses::total            35                       # number of demand (read+write) misses
system.cpu0.icache.overall_misses::cpu0.inst            2                       # number of overall misses
system.cpu0.icache.overall_misses::switch_cpus0.inst           33                       # number of overall misses
system.cpu0.icache.overall_misses::total           35                       # number of overall misses
system.cpu0.icache.ReadReq_miss_latency::switch_cpus0.inst      3718512                       # number of ReadReq miss cycles
system.cpu0.icache.ReadReq_miss_latency::total      3718512                       # number of ReadReq miss cycles
system.cpu0.icache.demand_miss_latency::switch_cpus0.inst      3718512                       # number of demand (read+write) miss cycles
system.cpu0.icache.demand_miss_latency::total      3718512                       # number of demand (read+write) miss cycles
system.cpu0.icache.overall_miss_latency::switch_cpus0.inst      3718512                       # number of overall miss cycles
system.cpu0.icache.overall_miss_latency::total      3718512                       # number of overall miss cycles
system.cpu0.icache.ReadReq_accesses::cpu0.inst           11                       # number of ReadReq accesses(hits+misses)
system.cpu0.icache.ReadReq_accesses::switch_cpus0.inst        88800                       # number of ReadReq accesses(hits+misses)
system.cpu0.icache.ReadReq_accesses::total        88811                       # number of ReadReq accesses(hits+misses)
system.cpu0.icache.demand_accesses::cpu0.inst           11                       # number of demand (read+write) accesses
system.cpu0.icache.demand_accesses::switch_cpus0.inst        88800                       # number of demand (read+write) accesses
system.cpu0.icache.demand_accesses::total        88811                       # number of demand (read+write) accesses
system.cpu0.icache.overall_accesses::cpu0.inst           11                       # number of overall (read+write) accesses
system.cpu0.icache.overall_accesses::switch_cpus0.inst        88800                       # number of overall (read+write) accesses
system.cpu0.icache.overall_accesses::total        88811                       # number of overall (read+write) accesses
system.cpu0.icache.ReadReq_miss_rate::cpu0.inst     0.181818                       # miss rate for ReadReq accesses
system.cpu0.icache.ReadReq_miss_rate::switch_cpus0.inst     0.000372                       # miss rate for ReadReq accesses
system.cpu0.icache.ReadReq_miss_rate::total     0.000394                       # miss rate for ReadReq accesses
system.cpu0.icache.demand_miss_rate::cpu0.inst     0.181818                       # miss rate for demand accesses
system.cpu0.icache.demand_miss_rate::switch_cpus0.inst     0.000372                       # miss rate for demand accesses
system.cpu0.icache.demand_miss_rate::total     0.000394                       # miss rate for demand accesses
system.cpu0.icache.overall_miss_rate::cpu0.inst     0.181818                       # miss rate for overall accesses
system.cpu0.icache.overall_miss_rate::switch_cpus0.inst     0.000372                       # miss rate for overall accesses
system.cpu0.icache.overall_miss_rate::total     0.000394                       # miss rate for overall accesses
system.cpu0.icache.ReadReq_avg_miss_latency::switch_cpus0.inst 112682.181818                       # average ReadReq miss latency
system.cpu0.icache.ReadReq_avg_miss_latency::total 106243.200000                       # average ReadReq miss latency
system.cpu0.icache.demand_avg_miss_latency::switch_cpus0.inst 112682.181818                       # average overall miss latency
system.cpu0.icache.demand_avg_miss_latency::total 106243.200000                       # average overall miss latency
system.cpu0.icache.overall_avg_miss_latency::switch_cpus0.inst 112682.181818                       # average overall miss latency
system.cpu0.icache.overall_avg_miss_latency::total 106243.200000                       # average overall miss latency
system.cpu0.icache.blocked_cycles::no_mshrs            0                       # number of cycles access was blocked
system.cpu0.icache.blocked_cycles::no_targets            0                       # number of cycles access was blocked
system.cpu0.icache.blocked::no_mshrs                0                       # number of cycles access was blocked
system.cpu0.icache.blocked::no_targets              0                       # number of cycles access was blocked
system.cpu0.icache.avg_blocked_cycles::no_mshrs          nan                       # average number of cycles each access was blocked
system.cpu0.icache.avg_blocked_cycles::no_targets          nan                       # average number of cycles each access was blocked
system.cpu0.icache.ReadReq_mshr_misses::switch_cpus0.inst           33                       # number of ReadReq MSHR misses
system.cpu0.icache.ReadReq_mshr_misses::total           33                       # number of ReadReq MSHR misses
system.cpu0.icache.demand_mshr_misses::switch_cpus0.inst           33                       # number of demand (read+write) MSHR misses
system.cpu0.icache.demand_mshr_misses::total           33                       # number of demand (read+write) MSHR misses
system.cpu0.icache.overall_mshr_misses::switch_cpus0.inst           33                       # number of overall MSHR misses
system.cpu0.icache.overall_mshr_misses::total           33                       # number of overall MSHR misses
system.cpu0.icache.ReadReq_mshr_miss_latency::switch_cpus0.inst      3663534                       # number of ReadReq MSHR miss cycles
system.cpu0.icache.ReadReq_mshr_miss_latency::total      3663534                       # number of ReadReq MSHR miss cycles
system.cpu0.icache.demand_mshr_miss_latency::switch_cpus0.inst      3663534                       # number of demand (read+write) MSHR miss cycles
system.cpu0.icache.demand_mshr_miss_latency::total      3663534                       # number of demand (read+write) MSHR miss cycles
system.cpu0.icache.overall_mshr_miss_latency::switch_cpus0.inst      3663534                       # number of overall MSHR miss cycles
system.cpu0.icache.overall_mshr_miss_latency::total      3663534                       # number of overall MSHR miss cycles
system.cpu0.icache.ReadReq_mshr_miss_rate::switch_cpus0.inst     0.000372                       # mshr miss rate for ReadReq accesses
system.cpu0.icache.ReadReq_mshr_miss_rate::total     0.000372                       # mshr miss rate for ReadReq accesses
system.cpu0.icache.demand_mshr_miss_rate::switch_cpus0.inst     0.000372                       # mshr miss rate for demand accesses
system.cpu0.icache.demand_mshr_miss_rate::total     0.000372                       # mshr miss rate for demand accesses
system.cpu0.icache.overall_mshr_miss_rate::switch_cpus0.inst     0.000372                       # mshr miss rate for overall accesses
system.cpu0.icache.overall_mshr_miss_rate::total     0.000372                       # mshr miss rate for overall accesses
system.cpu0.icache.ReadReq_avg_mshr_miss_latency::switch_cpus0.inst 111016.181818                       # average ReadReq mshr miss latency
[...]
system.switch_cpus2.op_class_0::SimdCmp             0      0.00%     72.46% # Class of committed instruction
system.switch_cpus2.op_class_0::SimdCvt             0      0.00%     72.46% # Class of committed instruction
system.switch_cpus2.op_class_0::SimdMisc            0      0.00%     72.46% # Class of committed instruction
system.switch_cpus2.op_class_0::SimdMult            0      0.00%     72.46% # Class of committed instruction
system.switch_cpus2.op_class_0::SimdMultAcc            0      0.00%     72.46% # Class of committed instruction
system.switch_cpus2.op_class_0::SimdShift            0      0.00%     72.46% # Class of committed instruction
system.switch_cpus2.op_class_0::SimdShiftAcc            0      0.00%     72.46% # Class of committed instruction
system.switch_cpus2.op_class_0::SimdSqrt            0      0.00%     72.46% # Class of committed instruction
system.switch_cpus2.op_class_0::SimdFloatAdd            0      0.00%     72.46% # Class of committed instruction
system.switch_cpus2.op_class_0::SimdFloatAlu            0      0.00%     72.46% # Class of committed instruction
system.switch_cpus2.op_class_0::SimdFloatCmp            0      0.00%     72.46% # Class of committed instruction
system.switch_cpus2.op_class_0::SimdFloatCvt            0      0.00%     72.46% # Class of committed instruction
system.switch_cpus2.op_class_0::SimdFloatDiv            0      0.00%     72.46% # Class of committed instruction
system.switch_cpus2.op_class_0::SimdFloatMisc            0      0.00%     72.46% # Class of committed instruction
system.switch_cpus2.op_class_0::SimdFloatMult            0      0.00%     72.46% # Class of committed instruction
system.switch_cpus2.op_class_0::SimdFloatMultAcc            0      0.00%     72.46% # Class of committed instruction
system.switch_cpus2.op_class_0::SimdFloatSqrt            0      0.00%     72.46% # Class of committed instruction
system.switch_cpus2.op_class_0::MemRead        400837      0.33%     72.79% # Class of committed instruction
system.switch_cpus2.op_class_0::MemWrite            6      0.00%     72.79% # Class of committed instruction
system.switch_cpus2.op_class_0::FloatMemRead     21195785     17.35%     90.14% # Class of committed instruction
system.switch_cpus2.op_class_0::FloatMemWrite     12044698      9.86%    100.00% # Class of committed instruction
system.switch_cpus2.op_class_0::IprAccess            0      0.00%    100.00% # Class of committed instruction
system.switch_cpus2.op_class_0::InstPrefetch            0      0.00%    100.00% # Class of committed instruction
system.switch_cpus2.op_class_0::total       122158813                       # Class of committed instruction
system.switch_cpus2.tickCycles              256998069                       # Number of cycles that the object actually ticked
system.switch_cpus2.idleCycles              389586069                       # Total number of cycles that the object has spent stopped
system.switch_cpus3.branchPred.lookups              0                       # Number of BP lookups
system.switch_cpus3.branchPred.condPredicted            0                       # Number of conditional branches predicted
system.switch_cpus3.branchPred.condIncorrect            0                       # Number of conditional branches incorrect
system.switch_cpus3.branchPred.BTBLookups            0                       # Number of BTB lookups
system.switch_cpus3.branchPred.BTBHits              0                       # Number of BTB hits
system.switch_cpus3.branchPred.BTBCorrect            0                       # Number of correct BTB predictions (this stat may not work properly.
system.switch_cpus3.branchPred.BTBHitPct          nan                       # BTB Hit Percentage
system.switch_cpus3.branchPred.usedRAS              0                       # Number of times the RAS was used to get a target.
system.switch_cpus3.branchPred.RASInCorrect            0                       # Number of incorrect RAS predictions.
system.switch_cpus3.branchPred.indirectLookups            0                       # Number of indirect predictor lookups.
system.switch_cpus3.branchPred.indirectHits            0                       # Number of indirect target hits.
system.switch_cpus3.branchPred.indirectMisses            0                       # Number of indirect misses.
system.switch_cpus3.branchPredindirectMispredicted            0                       # Number of mispredicted indirect branches.
system.switch_cpus3.dtb.walker.pwrStateResidencyTicks::UNDEFINED 538604601948                       # Cumulative time (in ticks) in various power states
system.switch_cpus3.itb.walker.pwrStateResidencyTicks::UNDEFINED 538604601948                       # Cumulative time (in ticks) in various power states
system.switch_cpus3.pwrStateResidencyTicks::ON 538604601948                       # Cumulative time (in ticks) in various power states
system.switch_cpus3.numCycles               646584390                       # number of cpu cycles simulated
system.switch_cpus3.numWorkItemsStarted             0                       # number of work items this cpu started
system.switch_cpus3.numWorkItemsCompleted            0                       # number of work items this cpu completed
system.switch_cpus3.committedInsts           99938102                       # Number of instructions committed
system.switch_cpus3.committedOps            121999895                       # Number of ops (including micro ops) committed
system.switch_cpus3.discardedOps              1545102                       # Number of ops (including micro ops) which were discarded before commit
system.switch_cpus3.numFetchSuspends                0                       # Number of times Execute suspended instruction fetching
system.switch_cpus3.cpi                      6.469849                       # CPI: cycles per instruction
system.switch_cpus3.ipc                      0.154563                       # IPC: instructions per cycle
system.switch_cpus3.op_class_0::No_OpClass            1      0.00%      0.00% # Class of committed instruction
system.switch_cpus3.op_class_0::IntAlu       29980493     24.57%     24.57% # Class of committed instruction
system.switch_cpus3.op_class_0::IntMult         60000      0.05%     24.62% # Class of committed instruction
system.switch_cpus3.op_class_0::IntDiv              0      0.00%     24.62% # Class of committed instruction
system.switch_cpus3.op_class_0::FloatAdd     58364158     47.84%     72.46% # Class of committed instruction
system.switch_cpus3.op_class_0::FloatCmp            0      0.00%     72.46% # Class of committed instruction
system.switch_cpus3.op_class_0::FloatCvt            0      0.00%     72.46% # Class of committed instruction
system.switch_cpus3.op_class_0::FloatMult            0      0.00%     72.46% # Class of committed instruction
system.switch_cpus3.op_class_0::FloatMultAcc            0      0.00%     72.46% # Class of committed instruction
system.switch_cpus3.op_class_0::FloatDiv            0      0.00%     72.46% # Class of committed instruction
system.switch_cpus3.op_class_0::FloatMisc            0      0.00%     72.46% # Class of committed instruction
system.switch_cpus3.op_class_0::FloatSqrt            0      0.00%     72.46% # Class of committed instruction
system.switch_cpus3.op_class_0::SimdAdd             0      0.00%     72.46% # Class of committed instruction
system.switch_cpus3.op_class_0::SimdAddAcc            0      0.00%     72.46% # Class of committed instruction
system.switch_cpus3.op_class_0::SimdAlu             0      0.00%     72.46% # Class of committed instruction
system.switch_cpus3.op_class_0::SimdCmp             0      0.00%     72.46% # Class of committed instruction
system.switch_cpus3.op_class_0::SimdCvt             0      0.00%     72.46% # Class of committed instruction
system.switch_cpus3.op_class_0::SimdMisc            0      0.00%     72.46% # Class of committed instruction
system.switch_cpus3.op_class_0::SimdMult            0      0.00%     72.46% # Class of committed instruction
system.switch_cpus3.op_class_0::SimdMultAcc            0      0.00%     72.46% # Class of committed instruction
system.switch_cpus3.op_class_0::SimdShift            0      0.00%     72.46% # Class of committed instruction
system.switch_cpus3.op_class_0::SimdShiftAcc            0      0.00%     72.46% # Class of committed instruction
system.switch_cpus3.op_class_0::SimdSqrt            0      0.00%     72.46% # Class of committed instruction
system.switch_cpus3.op_class_0::SimdFloatAdd            0      0.00%     72.46% # Class of committed instruction
system.switch_cpus3.op_class_0::SimdFloatAlu            0      0.00%     72.46% # Class of committed instruction
system.switch_cpus3.op_class_0::SimdFloatCmp            0      0.00%     72.46% # Class of committed instruction
system.switch_cpus3.op_class_0::SimdFloatCvt            0      0.00%     72.46% # Class of committed instruction
system.switch_cpus3.op_class_0::SimdFloatDiv            0      0.00%     72.46% # Class of committed instruction
system.switch_cpus3.op_class_0::SimdFloatMisc            0      0.00%     72.46% # Class of committed instruction
system.switch_cpus3.op_class_0::SimdFloatMult            0      0.00%     72.46% # Class of committed instruction
system.switch_cpus3.op_class_0::SimdFloatMultAcc            0      0.00%     72.46% # Class of committed instruction
system.switch_cpus3.op_class_0::SimdFloatSqrt            0      0.00%     72.46% # Class of committed instruction
system.switch_cpus3.op_class_0::MemRead        400218      0.33%     72.79% # Class of committed instruction
system.switch_cpus3.op_class_0::MemWrite            6      0.00%     72.79% # Class of committed instruction
system.switch_cpus3.op_class_0::FloatMemRead     21167485     17.35%     90.14% # Class of committed instruction
system.switch_cpus3.op_class_0::FloatMemWrite     12027534      9.86%    100.00% # Class of committed instruction
system.switch_cpus3.op_class_0::IprAccess            0      0.00%    100.00% # Class of committed instruction
system.switch_cpus3.op_class_0::InstPrefetch            0      0.00%    100.00% # Class of committed instruction
system.switch_cpus3.op_class_0::total       121999895                       # Class of committed instruction
system.switch_cpus3.tickCycles              256634015                       # Number of cycles that the object actually ticked
system.switch_cpus3.idleCycles              389950375                       # Total number of cycles that the object has spent stopped
system.tol2bus.snoop_filter.tot_requests     54398078                       # Total number of requests made to the snoop filter.
system.tol2bus.snoop_filter.hit_single_requests     27198937                       # Number of requests hitting in the snoop filter with a single holder of the requested data.
system.tol2bus.snoop_filter.hit_multi_requests            0                       # Number of requests hitting in the snoop filter with multiple (>1) holders of the requested data.
system.tol2bus.snoop_filter.tot_snoops           1315                       # Total number of snoops made to the snoop filter.
system.tol2bus.snoop_filter.hit_single_snoops         1315                       # Number of snoops hitting in the snoop filter with a single holder of the requested data.
system.tol2bus.snoop_filter.hit_multi_snoops            0                       # Number of snoops hitting in the snoop filter with multiple (>1) holders of the requested data.
system.tol2bus.pwrStateResidencyTicks::UNDEFINED 538604601948                       # Cumulative time (in ticks) in various power states
system.tol2bus.trans_dist::ReadResp           4489673                       # Transaction distribution
system.tol2bus.trans_dist::WritebackDirty     35018067                       # Transaction distribution
system.tol2bus.trans_dist::CleanEvict         8895369                       # Transaction distribution
system.tol2bus.trans_dist::ReadExReq         22709469                       # Transaction distribution
system.tol2bus.trans_dist::ReadExResp        22709472                       # Transaction distribution
system.tol2bus.trans_dist::ReadCleanReq           207                       # Transaction distribution
system.tol2bus.trans_dist::ReadSharedReq      4489465                       # Transaction distribution
system.tol2bus.pkt_count_system.cpu0.icache.mem_side::system.l2.cpu_side          104                       # Packet count per connected master and slave (bytes)
system.tol2bus.pkt_count_system.cpu0.dcache.mem_side::system.l2.cpu_side     20401089                       # Packet count per connected master and slave (bytes)
system.tol2bus.pkt_count_system.cpu1.icache.mem_side::system.l2.cpu_side          102                       # Packet count per connected master and slave (bytes)
system.tol2bus.pkt_count_system.cpu1.dcache.mem_side::system.l2.cpu_side     20389789                       # Packet count per connected master and slave (bytes)
system.tol2bus.pkt_count_system.cpu2.icache.mem_side::system.l2.cpu_side          104                       # Packet count per connected master and slave (bytes)
system.tol2bus.pkt_count_system.cpu2.dcache.mem_side::system.l2.cpu_side     20418437                       # Packet count per connected master and slave (bytes)
system.tol2bus.pkt_count_system.cpu3.icache.mem_side::system.l2.cpu_side          104                       # Packet count per connected master and slave (bytes)
system.tol2bus.pkt_count_system.cpu3.dcache.mem_side::system.l2.cpu_side     20387494                       # Packet count per connected master and slave (bytes)
system.tol2bus.pkt_count::total              81597223                       # Packet count per connected master and slave (bytes)
system.tol2bus.pkt_size_system.cpu0.icache.mem_side::system.l2.cpu_side         3328                       # Cumulative packet size per connected master and slave (bytes)
system.tol2bus.pkt_size_system.cpu0.dcache.mem_side::system.l2.cpu_side    798608896                       # Cumulative packet size per connected master and slave (bytes)
system.tol2bus.pkt_size_system.cpu1.icache.mem_side::system.l2.cpu_side         3264                       # Cumulative packet size per connected master and slave (bytes)
system.tol2bus.pkt_size_system.cpu1.dcache.mem_side::system.l2.cpu_side    798164352                       # Cumulative packet size per connected master and slave (bytes)
system.tol2bus.pkt_size_system.cpu2.icache.mem_side::system.l2.cpu_side         3328                       # Cumulative packet size per connected master and slave (bytes)
system.tol2bus.pkt_size_system.cpu2.dcache.mem_side::system.l2.cpu_side    799291712                       # Cumulative packet size per connected master and slave (bytes)
system.tol2bus.pkt_size_system.cpu3.icache.mem_side::system.l2.cpu_side         3328                       # Cumulative packet size per connected master and slave (bytes)
system.tol2bus.pkt_size_system.cpu3.dcache.mem_side::system.l2.cpu_side    798073920                       # Cumulative packet size per connected master and slave (bytes)
system.tol2bus.pkt_size::total             3194152128                       # Cumulative packet size per connected master and slave (bytes)
system.tol2bus.snoops                        16714499                       # Total snoops (count)
system.tol2bus.snoopTraffic                 787749440                       # Total snoop traffic (bytes)
system.tol2bus.snoop_fanout::samples         43913640                       # Request fanout histogram
system.tol2bus.snoop_fanout::mean            0.000030                       # Request fanout histogram
system.tol2bus.snoop_fanout::stdev           0.005472                       # Request fanout histogram
system.tol2bus.snoop_fanout::underflows             0      0.00%      0.00% # Request fanout histogram
system.tol2bus.snoop_fanout::0               43912325    100.00%    100.00% # Request fanout histogram
system.tol2bus.snoop_fanout::1                   1315      0.00%    100.00% # Request fanout histogram
system.tol2bus.snoop_fanout::2                      0      0.00%    100.00% # Request fanout histogram
system.tol2bus.snoop_fanout::3                      0      0.00%    100.00% # Request fanout histogram
system.tol2bus.snoop_fanout::4                      0      0.00%    100.00% # Request fanout histogram
system.tol2bus.snoop_fanout::5                      0      0.00%    100.00% # Request fanout histogram
system.tol2bus.snoop_fanout::6                      0      0.00%    100.00% # Request fanout histogram
system.tol2bus.snoop_fanout::7                      0      0.00%    100.00% # Request fanout histogram
system.tol2bus.snoop_fanout::8                      0      0.00%    100.00% # Request fanout histogram
system.tol2bus.snoop_fanout::9                      0      0.00%    100.00% # Request fanout histogram
system.tol2bus.snoop_fanout::10                     0      0.00%    100.00% # Request fanout histogram
system.tol2bus.snoop_fanout::11                     0      0.00%    100.00% # Request fanout histogram
system.tol2bus.snoop_fanout::12                     0      0.00%    100.00% # Request fanout histogram
system.tol2bus.snoop_fanout::13                     0      0.00%    100.00% # Request fanout histogram
system.tol2bus.snoop_fanout::14                     0      0.00%    100.00% # Request fanout histogram
system.tol2bus.snoop_fanout::15                     0      0.00%    100.00% # Request fanout histogram
system.tol2bus.snoop_fanout::16                     0      0.00%    100.00% # Request fanout histogram
system.tol2bus.snoop_fanout::overflows              0      0.00%    100.00% # Request fanout histogram
system.tol2bus.snoop_fanout::min_value              0                       # Request fanout histogram
system.tol2bus.snoop_fanout::max_value              1                       # Request fanout histogram
system.tol2bus.snoop_fanout::total           43913640                       # Request fanout histogram
system.tol2bus.reqLayer0.occupancy        83147595986                       # Layer occupancy (ticks)
system.tol2bus.reqLayer0.utilization             15.4                       # Layer utilization (%)
system.tol2bus.respLayer0.occupancy            129948                       # Layer occupancy (ticks)
system.tol2bus.respLayer0.utilization             0.0                       # Layer utilization (%)
system.tol2bus.respLayer1.occupancy       17037660651                       # Layer occupancy (ticks)
system.tol2bus.respLayer1.utilization             3.2                       # Layer utilization (%)
system.tol2bus.respLayer4.occupancy            127449                       # Layer occupancy (ticks)
system.tol2bus.respLayer4.utilization             0.0                       # Layer utilization (%)
system.tol2bus.respLayer5.occupancy       17028460756                       # Layer occupancy (ticks)
system.tol2bus.respLayer5.utilization             3.2                       # Layer utilization (%)
system.tol2bus.respLayer8.occupancy            129948                       # Layer occupancy (ticks)
system.tol2bus.respLayer8.utilization             0.0                       # Layer utilization (%)
system.tol2bus.respLayer9.occupancy       17052818744                       # Layer occupancy (ticks)
system.tol2bus.respLayer9.utilization             3.2                       # Layer utilization (%)
system.tol2bus.respLayer12.occupancy           131612                       # Layer occupancy (ticks)
system.tol2bus.respLayer12.utilization            0.0                       # Layer utilization (%)
system.tol2bus.respLayer13.occupancy      17027083996                       # Layer occupancy (ticks)
system.tol2bus.respLayer13.utilization            3.2                       # Layer utilization (%)

---------- End Simulation Statistics   ----------
