
---------- Begin Simulation Statistics ----------
sim_seconds                                  0.008469                       # Number of seconds simulated
sim_ticks                                  8468661305                       # Number of ticks simulated
final_tick                               2543563488305                       # Number of ticks from beginning of simulation (restored from checkpoints and never reset)
sim_freq                                 1000000000000                       # Frequency of simulated ticks
host_inst_rate                                 440794                       # Simulator instruction rate (inst/s)
host_op_rate                                   535226                       # Simulator op (including micro ops) rate (op/s)
host_tick_rate                             1244587821                       # Simulator tick rate (ticks/s)
host_mem_usage                                4025944                       # Number of bytes of host memory used
host_seconds                                     6.80                       # Real time elapsed on the host
sim_insts                                     2999321                       # Number of instructions simulated
sim_ops                                       3641880                       # Number of ops (including micro ops) simulated
system.voltage_domain.voltage                       1                       # Voltage in Volts
system.clk_domain.clock                          1000                       # Clock period in ticks
system.mem_ctrls.pwrStateResidencyTicks::UNDEFINED 2543563488305                       # Cumulative time (in ticks) in various power states
system.mem_ctrls.bytes_read::cpu0.inst            128                       # Number of bytes read from this memory
system.mem_ctrls.bytes_read::cpu0.data             64                       # Number of bytes read from this memory
system.mem_ctrls.bytes_read::cpu1.inst            128                       # Number of bytes read from this memory
system.mem_ctrls.bytes_read::cpu1.data             64                       # Number of bytes read from this memory
system.mem_ctrls.bytes_read::cpu2.inst            128                       # Number of bytes read from this memory
system.mem_ctrls.bytes_read::cpu2.data             64                       # Number of bytes read from this memory
system.mem_ctrls.bytes_read::switch_cpus0.inst         1920                       # Number of bytes read from this memory
system.mem_ctrls.bytes_read::switch_cpus0.data      2868800                       # Number of bytes read from this memory
system.mem_ctrls.bytes_read::switch_cpus1.inst         1920                       # Number of bytes read from this memory
system.mem_ctrls.bytes_read::switch_cpus1.data      2811840                       # Number of bytes read from this memory
system.mem_ctrls.bytes_read::switch_cpus2.inst         1920                       # Number of bytes read from this memory
system.mem_ctrls.bytes_read::switch_cpus2.data      2844288                       # Number of bytes read from this memory
system.mem_ctrls.bytes_read::total            8531264                       # Number of bytes read from this memory
system.mem_ctrls.bytes_inst_read::cpu0.inst          128                       # Number of instructions bytes read from this memory
system.mem_ctrls.bytes_inst_read::cpu1.inst          128                       # Number of instructions bytes read from this memory
system.mem_ctrls.bytes_inst_read::cpu2.inst          128                       # Number of instructions bytes read from this memory
system.mem_ctrls.bytes_inst_read::switch_cpus0.inst         1920                       # Number of instructions bytes read from this memory
system.mem_ctrls.bytes_inst_read::switch_cpus1.inst         1920                       # Number of instructions bytes read from this memory
system.mem_ctrls.bytes_inst_read::switch_cpus2.inst         1920                       # Number of instructions bytes read from this memory
system.mem_ctrls.bytes_inst_read::total          6144                       # Number of instructions bytes read from this memory
system.mem_ctrls.bytes_written::writebacks      6909760                       # Number of bytes written to this memory
system.mem_ctrls.bytes_written::total         6909760                       # Number of bytes written to this memory
system.mem_ctrls.num_reads::cpu0.inst               2                       # Number of read requests responded to by this memory
system.mem_ctrls.num_reads::cpu0.data               1                       # Number of read requests responded to by this memory
system.mem_ctrls.num_reads::cpu1.inst               2                       # Number of read requests responded to by this memory
system.mem_ctrls.num_reads::cpu1.data               1                       # Number of read requests responded to by this memory
system.mem_ctrls.num_reads::cpu2.inst               2                       # Number of read requests responded to by this memory
system.mem_ctrls.num_reads::cpu2.data               1                       # Number of read requests responded to by this memory
system.mem_ctrls.num_reads::switch_cpus0.inst           30                       # Number of read requests responded to by this memory
system.mem_ctrls.num_reads::switch_cpus0.data        44825                       # Number of read requests responded to by this memory
system.mem_ctrls.num_reads::switch_cpus1.inst           30                       # Number of read requests responded to by this memory
system.mem_ctrls.num_reads::switch_cpus1.data        43935                       # Number of read requests responded to by this memory
system.mem_ctrls.num_reads::switch_cpus2.inst           30                       # Number of read requests responded to by this memory
system.mem_ctrls.num_reads::switch_cpus2.data        44442                       # Number of read requests responded to by this memory
system.mem_ctrls.num_reads::total              133301                       # Number of read requests responded to by this memory
system.mem_ctrls.num_writes::writebacks        107965                       # Number of write requests responded to by this memory
system.mem_ctrls.num_writes::total             107965                       # Number of write requests responded to by this memory
system.mem_ctrls.bw_read::cpu0.inst             15115                       # Total read bandwidth from this memory (bytes/s)
system.mem_ctrls.bw_read::cpu0.data              7557                       # Total read bandwidth from this memory (bytes/s)
system.mem_ctrls.bw_read::cpu1.inst             15115                       # Total read bandwidth from this memory (bytes/s)
system.mem_ctrls.bw_read::cpu1.data              7557                       # Total read bandwidth from this memory (bytes/s)
system.mem_ctrls.bw_read::cpu2.inst             15115                       # Total read bandwidth from this memory (bytes/s)
system.mem_ctrls.bw_read::cpu2.data              7557                       # Total read bandwidth from this memory (bytes/s)
system.mem_ctrls.bw_read::switch_cpus0.inst       226718                       # Total read bandwidth from this memory (bytes/s)
system.mem_ctrls.bw_read::switch_cpus0.data    338754839                       # Total read bandwidth from this memory (bytes/s)
system.mem_ctrls.bw_read::switch_cpus1.inst       226718                       # Total read bandwidth from this memory (bytes/s)
system.mem_ctrls.bw_read::switch_cpus1.data    332028865                       # Total read bandwidth from this memory (bytes/s)
system.mem_ctrls.bw_read::switch_cpus2.inst       226718                       # Total read bandwidth from this memory (bytes/s)
system.mem_ctrls.bw_read::switch_cpus2.data    335860403                       # Total read bandwidth from this memory (bytes/s)
system.mem_ctrls.bw_read::total            1007392278                       # Total read bandwidth from this memory (bytes/s)
system.mem_ctrls.bw_inst_read::cpu0.inst        15115                       # Instruction read bandwidth from this memory (bytes/s)
system.mem_ctrls.bw_inst_read::cpu1.inst        15115                       # Instruction read bandwidth from this memory (bytes/s)
system.mem_ctrls.bw_inst_read::cpu2.inst        15115                       # Instruction read bandwidth from this memory (bytes/s)
system.mem_ctrls.bw_inst_read::switch_cpus0.inst       226718                       # Instruction read bandwidth from this memory (bytes/s)
system.mem_ctrls.bw_inst_read::switch_cpus1.inst       226718                       # Instruction read bandwidth from this memory (bytes/s)
system.mem_ctrls.bw_inst_read::switch_cpus2.inst       226718                       # Instruction read bandwidth from this memory (bytes/s)
system.mem_ctrls.bw_inst_read::total           725498                       # Instruction read bandwidth from this memory (bytes/s)
system.mem_ctrls.bw_write::writebacks       815921165                       # Write bandwidth from this memory (bytes/s)
system.mem_ctrls.bw_write::total            815921165                       # Write bandwidth from this memory (bytes/s)
system.mem_ctrls.bw_total::writebacks       815921165                       # Total bandwidth to/from this memory (bytes/s)
system.mem_ctrls.bw_total::cpu0.inst            15115                       # Total bandwidth to/from this memory (bytes/s)
system.mem_ctrls.bw_total::cpu0.data             7557                       # Total bandwidth to/from this memory (bytes/s)
system.mem_ctrls.bw_total::cpu1.inst            15115                       # Total bandwidth to/from this memory (bytes/s)
system.mem_ctrls.bw_total::cpu1.data             7557                       # Total bandwidth to/from this memory (bytes/s)
system.mem_ctrls.bw_total::cpu2.inst            15115                       # Total bandwidth to/from this memory (bytes/s)
system.mem_ctrls.bw_total::cpu2.data             7557                       # Total bandwidth to/from this memory (bytes/s)
system.mem_ctrls.bw_total::switch_cpus0.inst       226718                       # Total bandwidth to/from this memory (bytes/s)
system.mem_ctrls.bw_total::switch_cpus0.data    338754839                       # Total bandwidth to/from this memory (bytes/s)
system.mem_ctrls.bw_total::switch_cpus1.inst       226718                       # Total bandwidth to/from this memory (bytes/s)
system.mem_ctrls.bw_total::switch_cpus1.data    332028865                       # Total bandwidth to/from this memory (bytes/s)
system.mem_ctrls.bw_total::switch_cpus2.inst       226718                       # Total bandwidth to/from this memory (bytes/s)
system.mem_ctrls.bw_total::switch_cpus2.data    335860403                       # Total bandwidth to/from this memory (bytes/s)
system.mem_ctrls.bw_total::total           1823313443                       # Total bandwidth to/from this memory (bytes/s)
system.mem_ctrls.readReqs                      133293                       # Number of read requests accepted
system.mem_ctrls.writeReqs                     107965                       # Number of write requests accepted
system.mem_ctrls.readBursts                    133293                       # Number of DRAM read bursts, including those serviced by the write queue
system.mem_ctrls.writeBursts                   107965                       # Number of DRAM write bursts, including those merged in the write queue
system.mem_ctrls.bytesReadDRAM                8516480                       # Total number of bytes read from DRAM
system.mem_ctrls.bytesReadWrQ                   14272                       # Total number of bytes read from write queue
system.mem_ctrls.bytesWritten                 6907968                       # Total number of bytes written to DRAM
system.mem_ctrls.bytesReadSys                 8530752                       # Total read bytes from the system interface side
system.mem_ctrls.bytesWrittenSys              6909760                       # Total written bytes from the system interface side
system.mem_ctrls.servicedByWrQ                    223                       # Number of DRAM read bursts serviced by the write queue
system.mem_ctrls.mergedWrBursts                     0                       # Number of DRAM write bursts merged with an existing one
system.mem_ctrls.neitherReadNorWriteReqs            0                       # Number of requests that are neither read nor write
system.mem_ctrls.perBankRdBursts::0              8516                       # Per bank write bursts
system.mem_ctrls.perBankRdBursts::1              8454                       # Per bank write bursts
system.mem_ctrls.perBankRdBursts::2              8411                       # Per bank write bursts
system.mem_ctrls.perBankRdBursts::3              8418                       # Per bank write bursts
system.mem_ctrls.perBankRdBursts::4              8310                       # Per bank write bursts
system.mem_ctrls.perBankRdBursts::5              8284                       # Per bank write bursts
system.mem_ctrls.perBankRdBursts::6              8178                       # Per bank write bursts
system.mem_ctrls.perBankRdBursts::7              8132                       # Per bank write bursts
system.mem_ctrls.perBankRdBursts::8              8119                       # Per bank write bursts
system.mem_ctrls.perBankRdBursts::9              8184                       # Per bank write bursts
system.mem_ctrls.perBankRdBursts::10             8192                       # Per bank write bursts
system.mem_ctrls.perBankRdBursts::11             8278                       # Per bank write bursts
system.mem_ctrls.perBankRdBursts::12             8313                       # Per bank write bursts
system.mem_ctrls.perBankRdBursts::13             8403                       # Per bank write bursts
system.mem_ctrls.perBankRdBursts::14             8368                       # Per bank write bursts
system.mem_ctrls.perBankRdBursts::15             8510                       # Per bank write bursts
system.mem_ctrls.perBankWrBursts::0              6802                       # Per bank write bursts
system.mem_ctrls.perBankWrBursts::1              6728                       # Per bank write bursts
system.mem_ctrls.perBankWrBursts::2              6732                       # Per bank write bursts
system.mem_ctrls.perBankWrBursts::3              6682                       # Per bank write bursts
system.mem_ctrls.perBankWrBursts::4              6610                       # Per bank write bursts
system.mem_ctrls.perBankWrBursts::5              6639                       # Per bank write bursts
system.mem_ctrls.perBankWrBursts::6              6621                       # Per bank write bursts
system.mem_ctrls.perBankWrBursts::7              6600                       # Per bank write bursts
system.mem_ctrls.perBankWrBursts::8              6600                       # Per bank write bursts
system.mem_ctrls.perBankWrBursts::9              6715                       # Per bank write bursts
system.mem_ctrls.perBankWrBursts::10             6717                       # Per bank write bursts
system.mem_ctrls.perBankWrBursts::11             6732                       # Per bank write bursts
system.mem_ctrls.perBankWrBursts::12             6843                       # Per bank write bursts
system.mem_ctrls.perBankWrBursts::13             6988                       # Per bank write bursts
system.mem_ctrls.perBankWrBursts::14             7009                       # Per bank write bursts
system.mem_ctrls.perBankWrBursts::15             6919                       # Per bank write bursts
system.mem_ctrls.numRdRetry                         0                       # Number of times read queue was full causing retry
system.mem_ctrls.numWrRetry                         0                       # Number of times write queue was full causing retry
system.mem_ctrls.totGap                    8468542253                       # Total gap between requests
system.mem_ctrls.readPktSize::0                     0                       # Read request sizes (log2)
system.mem_ctrls.readPktSize::1                     0                       # Read request sizes (log2)
system.mem_ctrls.readPktSize::2                     0                       # Read request sizes (log2)
system.mem_ctrls.readPktSize::3                     0                       # Read request sizes (log2)
system.mem_ctrls.readPktSize::4                     0                       # Read request sizes (log2)
system.mem_ctrls.readPktSize::5                     0                       # Read request sizes (log2)
system.mem_ctrls.readPktSize::6                133293                       # Read request sizes (log2)
system.mem_ctrls.writePktSize::0                    0                       # Write request sizes (log2)
system.mem_ctrls.writePktSize::1                    0                       # Write request sizes (log2)
system.mem_ctrls.writePktSize::2                    0                       # Write request sizes (log2)
system.mem_ctrls.writePktSize::3                    0                       # Write request sizes (log2)
system.mem_ctrls.writePktSize::4                    0                       # Write request sizes (log2)
system.mem_ctrls.writePktSize::5                    0                       # Write request sizes (log2)
system.mem_ctrls.writePktSize::6               107965                       # Write request sizes (log2)
system.mem_ctrls.rdQLenPdf::0                   74780                       # What read queue length does an incoming req see
system.mem_ctrls.rdQLenPdf::1                   47694                       # What read queue length does an incoming req see
system.mem_ctrls.rdQLenPdf::2                   10596                       # What read queue length does an incoming req see
system.mem_ctrls.rdQLenPdf::3                       0                       # What read queue length does an incoming req see
system.mem_ctrls.rdQLenPdf::4                       0                       # What read queue length does an incoming req see
system.mem_ctrls.rdQLenPdf::5                       0                       # What read queue length does an incoming req see
system.mem_ctrls.rdQLenPdf::6                       0                       # What read queue length does an incoming req see
system.mem_ctrls.rdQLenPdf::7                       0                       # What read queue length does an incoming req see
system.mem_ctrls.rdQLenPdf::8                       0                       # What read queue length does an incoming req see
system.mem_ctrls.rdQLenPdf::9                       0                       # What read queue length does an incoming req see
system.mem_ctrls.rdQLenPdf::10                      0                       # What read queue length does an incoming req see
system.mem_ctrls.rdQLenPdf::11                      0                       # What read queue length does an incoming req see
system.mem_ctrls.rdQLenPdf::12                      0                       # What read queue length does an incoming req see
system.mem_ctrls.rdQLenPdf::13                      0                       # What read queue length does an incoming req see
system.mem_ctrls.rdQLenPdf::14                      0                       # What read queue length does an incoming req see
system.mem_ctrls.rdQLenPdf::15                      0                       # What read queue length does an incoming req see
system.mem_ctrls.rdQLenPdf::16                      0                       # What read queue length does an incoming req see
system.mem_ctrls.rdQLenPdf::17                      0                       # What read queue length does an incoming req see
system.mem_ctrls.rdQLenPdf::18                      0                       # What read queue length does an incoming req see
system.mem_ctrls.rdQLenPdf::19                      0                       # What read queue length does an incoming req see
system.mem_ctrls.rdQLenPdf::20                      0                       # What read queue length does an incoming req see
system.mem_ctrls.rdQLenPdf::21                      0                       # What read queue length does an incoming req see
system.mem_ctrls.rdQLenPdf::22                      0                       # What read queue length does an incoming req see
system.mem_ctrls.rdQLenPdf::23                      0                       # What read queue length does an incoming req see
system.mem_ctrls.rdQLenPdf::24                      0                       # What read queue length does an incoming req see
system.mem_ctrls.rdQLenPdf::25                      0                       # What read queue length does an incoming req see
system.mem_ctrls.rdQLenPdf::26                      0                       # What read queue length does an incoming req see
system.mem_ctrls.rdQLenPdf::27                      0                       # What read queue length does an incoming req see
system.mem_ctrls.rdQLenPdf::28                      0                       # What read queue length does an incoming req see
system.mem_ctrls.rdQLenPdf::29                      0                       # What read queue length does an incoming req see
system.mem_ctrls.rdQLenPdf::30                      0                       # What read queue length does an incoming req see
system.mem_ctrls.rdQLenPdf::31                      0                       # What read queue length does an incoming req see
system.mem_ctrls.wrQLenPdf::0                       1                       # What write queue length does an incoming req see
system.mem_ctrls.wrQLenPdf::1                       1                       # What write queue length does an incoming req see
system.mem_ctrls.wrQLenPdf::2                       1                       # What write queue length does an incoming req see
system.mem_ctrls.wrQLenPdf::3                       1                       # What write queue length does an incoming req see
system.mem_ctrls.wrQLenPdf::4                       1                       # What write queue length does an incoming req see
system.mem_ctrls.wrQLenPdf::5                       1                       # What write queue length does an incoming req see
system.mem_ctrls.wrQLenPdf::6                       1                       # What write queue length does an incoming req see
system.mem_ctrls.wrQLenPdf::7                       1                       # What write queue length does an incoming req see
system.mem_ctrls.wrQLenPdf::8                       1                       # What write queue length does an incoming req see
system.mem_ctrls.wrQLenPdf::9                       1                       # What write queue length does an incoming req see
system.mem_ctrls.wrQLenPdf::10                      1                       # What write queue length does an incoming req see
system.mem_ctrls.wrQLenPdf::11                      1                       # What write queue length does an incoming req see
system.mem_ctrls.wrQLenPdf::12                      1                       # What write queue length does an incoming req see
system.mem_ctrls.wrQLenPdf::13                      1                       # What write queue length does an incoming req see
system.mem_ctrls.wrQLenPdf::14                      1                       # What write queue length does an incoming req see
system.mem_ctrls.wrQLenPdf::15                    436                       # What write queue length does an incoming req see
system.mem_ctrls.wrQLenPdf::16                    656                       # What write queue length does an incoming req see
system.mem_ctrls.wrQLenPdf::17                   3668                       # What write queue length does an incoming req see
system.mem_ctrls.wrQLenPdf::18                   6409                       # What write queue length does an incoming req see
system.mem_ctrls.wrQLenPdf::19                   6926                       # What write queue length does an incoming req see
system.mem_ctrls.wrQLenPdf::20                   6926                       # What write queue length does an incoming req see
system.mem_ctrls.wrQLenPdf::21                   6929                       # What write queue length does an incoming req see
system.mem_ctrls.wrQLenPdf::22                   6919                       # What write queue length does an incoming req see
system.mem_ctrls.wrQLenPdf::23                   6970                       # What write queue length does an incoming req see
system.mem_ctrls.wrQLenPdf::24                   6968                       # What write queue length does an incoming req see
system.mem_ctrls.wrQLenPdf::25                   7021                       # What write queue length does an incoming req see
system.mem_ctrls.wrQLenPdf::26                   6996                       # What write queue length does an incoming req see
system.mem_ctrls.wrQLenPdf::27                   7120                       # What write queue length does an incoming req see
system.mem_ctrls.wrQLenPdf::28                   7009                       # What write queue length does an incoming req see
system.mem_ctrls.wrQLenPdf::29                   6872                       # What write queue length does an incoming req see
system.mem_ctrls.wrQLenPdf::30                   6739                       # What write queue length does an incoming req see
system.mem_ctrls.wrQLenPdf::31                   6675                       # What write queue length does an incoming req see
system.mem_ctrls.wrQLenPdf::32                   6650                       # What write queue length does an incoming req see
system.mem_ctrls.wrQLenPdf::33                     51                       # What write queue length does an incoming req see
system.mem_ctrls.wrQLenPdf::34                      9                       # What write queue length does an incoming req see
system.mem_ctrls.wrQLenPdf::35                      1                       # What write queue length does an incoming req see
system.mem_ctrls.wrQLenPdf::36                      0                       # What write queue length does an incoming req see
system.mem_ctrls.wrQLenPdf::37                      0                       # What write queue length does an incoming req see
system.mem_ctrls.wrQLenPdf::38                      0                       # What write queue length does an incoming req see
system.mem_ctrls.wrQLenPdf::39                      0                       # What write queue length does an incoming req see
system.mem_ctrls.wrQLenPdf::40                      0                       # What write queue length does an incoming req see
system.mem_ctrls.wrQLenPdf::41                      0                       # What write queue length does an incoming req see
system.mem_ctrls.wrQLenPdf::42                      0                       # What write queue length does an incoming req see
system.mem_ctrls.wrQLenPdf::43                      0                       # What write queue length does an incoming req see
system.mem_ctrls.wrQLenPdf::44                      0                       # What write queue length does an incoming req see
system.mem_ctrls.wrQLenPdf::45                      0                       # What write queue length does an incoming req see
system.mem_ctrls.wrQLenPdf::46                      0                       # What write queue length does an incoming req see
system.mem_ctrls.wrQLenPdf::47                      0                       # What write queue length does an incoming req see
system.mem_ctrls.wrQLenPdf::48                      0                       # What write queue length does an incoming req see
system.mem_ctrls.wrQLenPdf::49                      0                       # What write queue length does an incoming req see
system.mem_ctrls.wrQLenPdf::50                      0                       # What write queue length does an incoming req see
system.mem_ctrls.wrQLenPdf::51                      0                       # What write queue length does an incoming req see
system.mem_ctrls.wrQLenPdf::52                      0                       # What write queue length does an incoming req see
system.mem_ctrls.wrQLenPdf::53                      0                       # What write queue length does an incoming req see
system.mem_ctrls.wrQLenPdf::54                      0                       # What write queue length does an incoming req see
system.mem_ctrls.wrQLenPdf::55                      0                       # What write queue length does an incoming req see
system.mem_ctrls.wrQLenPdf::56                      0                       # What write queue length does an incoming req see
system.mem_ctrls.wrQLenPdf::57                      0                       # What write queue length does an incoming req see
system.mem_ctrls.wrQLenPdf::58                      0                       # What write queue length does an incoming req see
system.mem_ctrls.wrQLenPdf::59                      0                       # What write queue length does an incoming req see
system.mem_ctrls.wrQLenPdf::60                      0                       # What write queue length does an incoming req see
system.mem_ctrls.wrQLenPdf::61                      0                       # What write queue length does an incoming req see
system.mem_ctrls.wrQLenPdf::62                      0                       # What write queue length does an incoming req see
system.mem_ctrls.wrQLenPdf::63                      0                       # What write queue length does an incoming req see
system.mem_ctrls.bytesPerActivate::samples       158043                       # Bytes accessed per row activation
system.mem_ctrls.bytesPerActivate::mean     97.588428                       # Bytes accessed per row activation
system.mem_ctrls.bytesPerActivate::gmean    87.811303                       # Bytes accessed per row activation
system.mem_ctrls.bytesPerActivate::stdev    51.058708                       # Bytes accessed per row activation
system.mem_ctrls.bytesPerActivate::64-127        98785     62.51%     62.51% # Bytes accessed per row activation
system.mem_ctrls.bytesPerActivate::128-191        40491     25.62%     88.13% # Bytes accessed per row activation
system.mem_ctrls.bytesPerActivate::192-255        15193      9.61%     97.74% # Bytes accessed per row activation
system.mem_ctrls.bytesPerActivate::256-319         2636      1.67%     99.41% # Bytes accessed per row activation
system.mem_ctrls.bytesPerActivate::320-383          671      0.42%     99.83% # Bytes accessed per row activation
system.mem_ctrls.bytesPerActivate::384-447          171      0.11%     99.94% # Bytes accessed per row activation
system.mem_ctrls.bytesPerActivate::448-511           71      0.04%     99.98% # Bytes accessed per row activation
system.mem_ctrls.bytesPerActivate::512-575           18      0.01%    100.00% # Bytes accessed per row activation
system.mem_ctrls.bytesPerActivate::576-639            2      0.00%    100.00% # Bytes accessed per row activation
system.mem_ctrls.bytesPerActivate::640-703            3      0.00%    100.00% # Bytes accessed per row activation
system.mem_ctrls.bytesPerActivate::832-895            1      0.00%    100.00% # Bytes accessed per row activation
system.mem_ctrls.bytesPerActivate::896-959            1      0.00%    100.00% # Bytes accessed per row activation
system.mem_ctrls.bytesPerActivate::total       158043                       # Bytes accessed per row activation
system.mem_ctrls.rdPerTurnAround::samples         6630                       # Reads before turning the bus around for writes
system.mem_ctrls.rdPerTurnAround::mean      20.068778                       # Reads before turning the bus around for writes
system.mem_ctrls.rdPerTurnAround::gmean     19.461098                       # Reads before turning the bus around for writes
system.mem_ctrls.rdPerTurnAround::stdev     26.704324                       # Reads before turning the bus around for writes
system.mem_ctrls.rdPerTurnAround::0-127          6629     99.98%     99.98% # Reads before turning the bus around for writes
system.mem_ctrls.rdPerTurnAround::2048-2175            1      0.02%    100.00% # Reads before turning the bus around for writes
system.mem_ctrls.rdPerTurnAround::total          6630                       # Reads before turning the bus around for writes
system.mem_ctrls.wrPerTurnAround::samples         6630                       # Writes before turning the bus around for reads
system.mem_ctrls.wrPerTurnAround::mean      16.280090                       # Writes before turning the bus around for reads
system.mem_ctrls.wrPerTurnAround::gmean     16.259159                       # Writes before turning the bus around for reads
system.mem_ctrls.wrPerTurnAround::stdev      0.871852                       # Writes before turning the bus around for reads
system.mem_ctrls.wrPerTurnAround::16             5881     88.70%     88.70% # Writes before turning the bus around for reads
system.mem_ctrls.wrPerTurnAround::17              165      2.49%     91.19% # Writes before turning the bus around for reads
system.mem_ctrls.wrPerTurnAround::18              227      3.42%     94.62% # Writes before turning the bus around for reads
system.mem_ctrls.wrPerTurnAround::19              233      3.51%     98.13% # Writes before turning the bus around for reads
system.mem_ctrls.wrPerTurnAround::20               89      1.34%     99.47% # Writes before turning the bus around for reads
system.mem_ctrls.wrPerTurnAround::21               28      0.42%     99.89% # Writes before turning the bus around for reads
system.mem_ctrls.wrPerTurnAround::22                6      0.09%     99.98% # Writes before turning the bus around for reads
system.mem_ctrls.wrPerTurnAround::23                1      0.02%    100.00% # Writes before turning the bus around for reads
system.mem_ctrls.wrPerTurnAround::total          6630                       # Writes before turning the bus around for reads
system.mem_ctrls.totQLat                   4443841599                       # Total ticks spent queuing
system.mem_ctrls.totMemAccLat              6938904099                       # Total ticks spent from burst creation until serviced by the DRAM
system.mem_ctrls.totBusLat                  665350000                       # Total ticks spent in databus transfers
system.mem_ctrls.avgQLat                     33394.77                       # Average queueing delay per DRAM burst
system.mem_ctrls.avgBusLat                    5000.00                       # Average bus latency per DRAM burst
system.mem_ctrls.avgMemAccLat                52144.77                       # Average memory access latency per DRAM burst
system.mem_ctrls.avgRdBW                      1005.65                       # Average DRAM read bandwidth in MiByte/s
system.mem_ctrls.avgWrBW                       815.71                       # Average achieved write bandwidth in MiByte/s
system.mem_ctrls.avgRdBWSys                   1007.33                       # Average system read bandwidth in MiByte/s
system.mem_ctrls.avgWrBWSys                    815.92                       # Average system write bandwidth in MiByte/s
system.mem_ctrls.peakBW                      12800.00                       # Theoretical peak bandwidth in MiByte/s
system.mem_ctrls.busUtil                        14.23                       # Data bus utilization in percentage
system.mem_ctrls.busUtilRead                     7.86                       # Data bus utilization in percentage for reads
system.mem_ctrls.busUtilWrite                    6.37                       # Data bus utilization in percentage for writes
system.mem_ctrls.avgRdQLen                       1.74                       # Average read queue length when enqueuing
system.mem_ctrls.avgWrQLen                      25.42                       # Average write queue length when enqueuing
system.mem_ctrls.readRowHits                    31097                       # Number of row buffer hits during reads
system.mem_ctrls.writeRowHits                   51853                       # Number of row buffer hits during writes
system.mem_ctrls.readRowHitRate                 23.37                       # Row buffer hit rate for reads
system.mem_ctrls.writeRowHitRate                48.03                       # Row buffer hit rate for writes
system.mem_ctrls.avgGap                      35101.60                       # Average gap between requests
system.mem_ctrls.pageHitRate                    34.41                       # Row buffer hit rate, read and write combined
system.mem_ctrls_0.actEnergy                562860480                       # Energy for activate commands per rank (pJ)
system.mem_ctrls_0.preEnergy                299140875                       # Energy for precharge commands per rank (pJ)
system.mem_ctrls_0.readEnergy               476259420                       # Energy for read commands per rank (pJ)
system.mem_ctrls_0.writeEnergy              278821080                       # Energy for write commands per rank (pJ)
system.mem_ctrls_0.refreshEnergy         668113680.000000                       # Energy for refresh commands per rank (pJ)
system.mem_ctrls_0.actBackEnergy           1649389620                       # Energy for active background per rank (pJ)
system.mem_ctrls_0.preBackEnergy             14165280                       # Energy for precharge background per rank (pJ)
system.mem_ctrls_0.actPowerDownEnergy      2182732350                       # Energy for active power-down per rank (pJ)
system.mem_ctrls_0.prePowerDownEnergy        10746720                       # Energy for precharge power-down per rank (pJ)
system.mem_ctrls_0.selfRefreshEnergy                0                       # Energy for self refresh per rank (pJ)
system.mem_ctrls_0.totalEnergy             6142229505                       # Total energy per rank (pJ)
system.mem_ctrls_0.averagePower            725.290170                       # Core power per rank (mW)
system.mem_ctrls_0.totalIdleTime           4814951523                       # Total Idle time Per DRAM Rank
system.mem_ctrls_0.memoryStateTime::IDLE      4942546                       # Time in different power states
system.mem_ctrls_0.memoryStateTime::REF     282620000                       # Time in different power states
system.mem_ctrls_0.memoryStateTime::SREF            0                       # Time in different power states
system.mem_ctrls_0.memoryStateTime::PRE_PDN     27951816                       # Time in different power states
system.mem_ctrls_0.memoryStateTime::ACT    3366080073                       # Time in different power states
system.mem_ctrls_0.memoryStateTime::ACT_PDN   4787056749                       # Time in different power states
system.mem_ctrls_1.actEnergy                565666500                       # Energy for activate commands per rank (pJ)
system.mem_ctrls_1.preEnergy                300632310                       # Energy for precharge commands per rank (pJ)
system.mem_ctrls_1.readEnergy               473860380                       # Energy for read commands per rank (pJ)
system.mem_ctrls_1.writeEnergy              284610060                       # Energy for write commands per rank (pJ)
system.mem_ctrls_1.refreshEnergy         668113680.000000                       # Energy for refresh commands per rank (pJ)
system.mem_ctrls_1.actBackEnergy           1645713120                       # Energy for active background per rank (pJ)
system.mem_ctrls_1.preBackEnergy             14125440                       # Energy for precharge background per rank (pJ)
system.mem_ctrls_1.actPowerDownEnergy      2187125910                       # Energy for active power-down per rank (pJ)
system.mem_ctrls_1.prePowerDownEnergy        10182720                       # Energy for precharge power-down per rank (pJ)
system.mem_ctrls_1.selfRefreshEnergy                0                       # Energy for self refresh per rank (pJ)
system.mem_ctrls_1.totalEnergy             6150030120                       # Total energy per rank (pJ)
system.mem_ctrls_1.averagePower            726.211287                       # Core power per rank (mW)
system.mem_ctrls_1.totalIdleTime           4823119032                       # Total Idle time Per DRAM Rank
system.mem_ctrls_1.memoryStateTime::IDLE      5247646                       # Time in different power states
system.mem_ctrls_1.memoryStateTime::REF     282620000                       # Time in different power states
system.mem_ctrls_1.memoryStateTime::SREF            0                       # Time in different power states
system.mem_ctrls_1.memoryStateTime::PRE_PDN     26487881                       # Time in different power states
system.mem_ctrls_1.memoryStateTime::ACT    3357664506                       # Time in different power states
system.mem_ctrls_1.memoryStateTime::ACT_PDN   4796631151                       # Time in different power states
system.pwrStateResidencyTicks::UNDEFINED 2543563488305                       # Cumulative time (in ticks) in various power states
system.cpu_voltage_domain.voltage                   1                       # Voltage in Volts
system.cpu_clk_domain.clock                       833                       # Clock period in ticks
system.cpu0.dtb.walker.pwrStateResidencyTicks::UNDEFINED 2543563488305                       # Cumulative time (in ticks) in various power states
system.cpu0.apic_clk_domain.clock               13328                       # Clock period in ticks
system.cpu0.interrupts.pwrStateResidencyTicks::UNDEFINED 2543563488305                       # Cumulative time (in ticks) in various power states
system.cpu0.itb.walker.pwrStateResidencyTicks::UNDEFINED 2543563488305                       # Cumulative time (in ticks) in various power states
system.cpu0.workload.num_syscalls                   0                       # Number of system calls
system.cpu0.pwrStateResidencyTicks::ON     8468661305                       # Cumulative time (in ticks) in various power states
system.cpu0.numCycles                              12                       # number of cpu cycles simulated
system.cpu0.numWorkItemsStarted                     0                       # number of work items this cpu started
system.cpu0.numWorkItemsCompleted                   0                       # number of work items this cpu completed
system.cpu0.committedInsts                          7                       # Number of instructions committed
system.cpu0.committedOps                            8                       # Number of ops (including micro ops) committed
system.cpu0.num_int_alu_accesses                    1                       # Number of integer alu accesses
system.cpu0.num_fp_alu_accesses                     8                       # Number of float alu accesses
system.cpu0.num_func_calls                          0                       # number of times a function call or return occured
system.cpu0.num_conditional_control_insts            0                       # number of instructions that are conditional controls
system.cpu0.num_int_insts                           1                       # number of integer instructions
system.cpu0.num_fp_insts                            8                       # number of float instructions
system.cpu0.num_int_register_reads                  3                       # number of times the integer registers were read
system.cpu0.num_int_register_writes                 0                       # number of times the integer registers were written
system.cpu0.num_fp_register_reads                  20                       # number of times the floating registers were read
system.cpu0.num_fp_register_writes                  7                       # number of times the floating registers were written
system.cpu0.num_mem_refs                            1                       # number of memory refs
system.cpu0.num_load_insts                          0                       # Number of load instructions
system.cpu0.num_store_insts                         1                       # Number of store instructions
system.cpu0.num_idle_cycles                         0                       # Number of idle cycles
system.cpu0.num_busy_cycles                        12                       # Number of busy cycles
system.cpu0.not_idle_fraction                       1                       # Percentage of non-idle cycles
system.cpu0.idle_fraction                           0                       # Percentage of idle cycles
system.cpu0.op_class::No_OpClass                    0      0.00%      0.00% # Class of executed instruction
system.cpu0.op_class::IntAlu                        2     25.00%     25.00% # Class of executed instruction
system.cpu0.op_class::IntMult                       0      0.00%     25.00% # Class of executed instruction
system.cpu0.op_class::IntDiv                        0      0.00%     25.00% # Class of executed instruction
system.cpu0.op_class::FloatAdd                      5     62.50%     87.50% # Class of executed instruction
system.cpu0.op_class::FloatCmp                      0      0.00%     87.50% # Class of executed instruction
system.cpu0.op_class::FloatCvt                      0      0.00%     87.50% # Class of executed instruction
system.cpu0.op_class::FloatMult                     0      0.00%     87.50% # Class of executed instruction
system.cpu0.op_class::FloatMultAcc                  0      0.00%     87.50% # Class of executed instruction
system.cpu0.op_class::FloatDiv                      0      0.00%     87.50% # Class of executed instruction
system.cpu0.op_class::FloatMisc                     0      0.00%     87.50% # Class of executed instruction
system.cpu0.op_class::FloatSqrt                     0      0.00%     87.50% # Class of executed instruction
system.cpu0.op_class::SimdAdd                       0      0.00%     87.50% # Class of executed instruction
system.cpu0.op_class::SimdAddAcc                    0      0.00%     87.50% # Class of executed instruction
system.cpu0.op_class::SimdAlu                       0      0.00%     87.50% # Class of executed instruction
system.cpu0.op_class::SimdCmp                       0      0.00%     87.50% # Class of executed instruction
system.cpu0.op_class::SimdCvt                       0      0.00%     87.50% # Class of executed instruction
system.cpu0.op_class::SimdMisc                      0      0.00%     87.50% # Class of executed instruction
system.cpu0.op_class::SimdMult                      0      0.00%     87.50% # Class of executed instruction
system.cpu0.op_class::SimdMultAcc                   0      0.00%     87.50% # Class of executed instruction
system.cpu0.op_class::SimdShift                     0      0.00%     87.50% # Class of executed instruction
system.cpu0.op_class::SimdShiftAcc                  0      0.00%     87.50% # Class of executed instruction
system.cpu0.op_class::SimdSqrt                      0      0.00%     87.50% # Class of executed instruction
system.cpu0.op_class::SimdFloatAdd                  0      0.00%     87.50% # Class of executed instruction
system.cpu0.op_class::SimdFloatAlu                  0      0.00%     87.50% # Class of executed instruction
system.cpu0.op_class::SimdFloatCmp                  0      0.00%     87.50% # Class of executed instruction
system.cpu0.op_class::SimdFloatCvt                  0      0.00%     87.50% # Class of executed instruction
system.cpu0.op_class::SimdFloatDiv                  0      0.00%     87.50% # Class of executed instruction
system.cpu0.op_class::SimdFloatMisc                 0      0.00%     87.50% # Class of executed instruction
system.cpu0.op_class::SimdFloatMult                 0      0.00%     87.50% # Class of executed instruction
system.cpu0.op_class::SimdFloatMultAcc              0      0.00%     87.50% # Class of executed instruction
system.cpu0.op_class::SimdFloatSqrt                 0      0.00%     87.50% # Class of executed instruction
system.cpu0.op_class::MemRead                       0      0.00%     87.50% # Class of executed instruction
system.cpu0.op_class::MemWrite                      0      0.00%     87.50% # Class of executed instruction
system.cpu0.op_class::FloatMemRead                  0      0.00%     87.50% # Class of executed instruction
system.cpu0.op_class::FloatMemWrite                 1     12.50%    100.00% # Class of executed instruction
system.cpu0.op_class::IprAccess                     0      0.00%    100.00% # Class of executed instruction
system.cpu0.op_class::InstPrefetch                  0      0.00%    100.00% # Class of executed instruction
system.cpu0.op_class::total                         8                       # Class of executed instruction
system.cpu0.dcache.tags.pwrStateResidencyTicks::UNDEFINED 2543563488305                       # Cumulative time (in ticks) in various power states
system.cpu0.dcache.tags.replacements            47606                       # number of replacements
system.cpu0.dcache.tags.tagsinuse          382.314148                       # Cycle average of tags in use
system.cpu0.dcache.tags.total_refs             115786                       # Total number of references to valid blocks.
system.cpu0.dcache.tags.sampled_refs            47606                       # Sample count of references to valid blocks.
system.cpu0.dcache.tags.avg_refs             2.432172                       # Average number of references to valid blocks.
system.cpu0.dcache.tags.warmup_cycle     2535191669206                       # Cycle when the warmup percentage was hit.
system.cpu0.dcache.tags.occ_blocks::cpu0.data     0.999999                       # Average occupied blocks per requestor
system.cpu0.dcache.tags.occ_blocks::switch_cpus0.data   381.314149                       # Average occupied blocks per requestor
system.cpu0.dcache.tags.occ_percent::cpu0.data     0.002604                       # Average percentage of cache occupancy
system.cpu0.dcache.tags.occ_percent::switch_cpus0.data     0.993006                       # Average percentage of cache occupancy
system.cpu0.dcache.tags.occ_percent::total     0.995610                       # Average percentage of cache occupancy
system.cpu0.dcache.tags.occ_task_id_blocks::1024          384                       # Occupied blocks per task id
system.cpu0.dcache.tags.age_task_id_blocks_1024::0           57                       # Occupied blocks per task id
system.cpu0.dcache.tags.age_task_id_blocks_1024::1          321                       # Occupied blocks per task id
system.cpu0.dcache.tags.age_task_id_blocks_1024::3            6                       # Occupied blocks per task id
system.cpu0.dcache.tags.occ_task_id_percent::1024            1                       # Percentage of cache occupancy per task id
system.cpu0.dcache.tags.tag_accesses          1839608                       # Number of tag accesses
system.cpu0.dcache.tags.data_accesses         1839608                       # Number of data accesses
system.cpu0.dcache.pwrStateResidencyTicks::UNDEFINED 2543563488305                       # Cumulative time (in ticks) in various power states
system.cpu0.dcache.ReadReq_hits::switch_cpus0.data       190494                       # number of ReadReq hits
system.cpu0.dcache.ReadReq_hits::total         190494                       # number of ReadReq hits
system.cpu0.dcache.WriteReq_hits::switch_cpus0.data        60119                       # number of WriteReq hits
system.cpu0.dcache.WriteReq_hits::total         60119                       # number of WriteReq hits
system.cpu0.dcache.demand_hits::switch_cpus0.data       250613                       # number of demand (read+write) hits
system.cpu0.dcache.demand_hits::total          250613                       # number of demand (read+write) hits
system.cpu0.dcache.overall_hits::switch_cpus0.data       250613                       # number of overall hits
system.cpu0.dcache.overall_hits::total         250613                       # number of overall hits
system.cpu0.dcache.ReadReq_misses::switch_cpus0.data         7275                       # number of ReadReq misses
system.cpu0.dcache.ReadReq_misses::total         7275                       # number of ReadReq misses
system.cpu0.dcache.WriteReq_misses::cpu0.data            1                       # number of WriteReq misses
system.cpu0.dcache.WriteReq_misses::switch_cpus0.data        40714                       # number of WriteReq misses
system.cpu0.dcache.WriteReq_misses::total        40715                       # number of WriteReq misses
system.cpu0.dcache.demand_misses::cpu0.data            1                       # number of demand (read+write) misses
system.cpu0.dcache.demand_misses::switch_cpus0.data        47989                       # number of demand (read+write) misses
system.cpu0.dcache.demand_misses::total         47990                       # number of demand (read+write) misses
system.cpu0.dcache.overall_misses::cpu0.data            1                       # number of overall misses
system.cpu0.dcache.overall_misses::switch_cpus0.data        47989                       # number of overall misses
system.cpu0.dcache.overall_misses::total        47990                       # number of overall misses
system.cpu0.dcache.ReadReq_miss_latency::switch_cpus0.data    857256127                       # number of ReadReq miss cycles
system.cpu0.dcache.ReadReq_miss_latency::total    857256127                       # number of ReadReq miss cycles
system.cpu0.dcache.WriteReq_miss_latency::switch_cpus0.data   4634584591                       # number of WriteReq miss cycles
system.cpu0.dcache.WriteReq_miss_latency::total   4634584591                       # number of WriteReq miss cycles
system.cpu0.dcache.demand_miss_latency::switch_cpus0.data   5491840718                       # number of demand (read+write) miss cycles
system.cpu0.dcache.demand_miss_latency::total   5491840718                       # number of demand (read+write) miss cycles
system.cpu0.dcache.overall_miss_latency::switch_cpus0.data   5491840718                       # number of overall miss cycles
system.cpu0.dcache.overall_miss_latency::total   5491840718                       # number of overall miss cycles
system.cpu0.dcache.ReadReq_accesses::switch_cpus0.data       197769                       # number of ReadReq accesses(hits+misses)
system.cpu0.dcache.ReadReq_accesses::total       197769                       # number of ReadReq accesses(hits+misses)
system.cpu0.dcache.WriteReq_accesses::cpu0.data            1                       # number of WriteReq accesses(hits+misses)
system.cpu0.dcache.WriteReq_accesses::switch_cpus0.data       100833                       # number of WriteReq accesses(hits+misses)
system.cpu0.dcache.WriteReq_accesses::total       100834                       # number of WriteReq accesses(hits+misses)
system.cpu0.dcache.demand_accesses::cpu0.data            1                       # number of demand (read+write) accesses
system.cpu0.dcache.demand_accesses::switch_cpus0.data       298602                       # number of demand (read+write) accesses
system.cpu0.dcache.demand_accesses::total       298603                       # number of demand (read+write) accesses
system.cpu0.dcache.overall_accesses::cpu0.data            1                       # number of overall (read+write) accesses
system.cpu0.dcache.overall_accesses::switch_cpus0.data       298602                       # number of overall (read+write) accesses
system.cpu0.dcache.overall_accesses::total       298603                       # number of overall (read+write) accesses
system.cpu0.dcache.ReadReq_miss_rate::switch_cpus0.data     0.036785                       # miss rate for ReadReq accesses
system.cpu0.dcache.ReadReq_miss_rate::total     0.036785                       # miss rate for ReadReq accesses
system.cpu0.dcache.WriteReq_miss_rate::cpu0.data            1                       # miss rate for WriteReq accesses
system.cpu0.dcache.WriteReq_miss_rate::switch_cpus0.data     0.403777                       # miss rate for WriteReq accesses
system.cpu0.dcache.WriteReq_miss_rate::total     0.403782                       # miss rate for WriteReq accesses
system.cpu0.dcache.demand_miss_rate::cpu0.data            1                       # miss rate for demand accesses
system.cpu0.dcache.demand_miss_rate::switch_cpus0.data     0.160712                       # miss rate for demand accesses
system.cpu0.dcache.demand_miss_rate::total     0.160715                       # miss rate for demand accesses
system.cpu0.dcache.overall_miss_rate::cpu0.data            1                       # miss rate for overall accesses
system.cpu0.dcache.overall_miss_rate::switch_cpus0.data     0.160712                       # miss rate for overall accesses
system.cpu0.dcache.overall_miss_rate::total     0.160715                       # miss rate for overall accesses
system.cpu0.dcache.ReadReq_avg_miss_latency::switch_cpus0.data 117835.893746                       # average ReadReq miss latency
system.cpu0.dcache.ReadReq_avg_miss_latency::total 117835.893746                       # average ReadReq miss latency
system.cpu0.dcache.WriteReq_avg_miss_latency::switch_cpus0.data 113832.701061                       # average WriteReq miss latency
system.cpu0.dcache.WriteReq_avg_miss_latency::total 113829.905219                       # average WriteReq miss latency
system.cpu0.dcache.demand_avg_miss_latency::switch_cpus0.data 114439.574027                       # average overall miss latency
system.cpu0.dcache.demand_avg_miss_latency::total 114437.189373                       # average overall miss latency
system.cpu0.dcache.overall_avg_miss_latency::switch_cpus0.data 114439.574027                       # average overall miss latency
system.cpu0.dcache.overall_avg_miss_latency::total 114437.189373                       # average overall miss latency
system.cpu0.dcache.blocked_cycles::no_mshrs            0                       # number of cycles access was blocked
system.cpu0.dcache.blocked_cycles::no_targets            0                       # number of cycles access was blocked
system.cpu0.dcache.blocked::no_mshrs                0                       # number of cycles access was blocked
system.cpu0.dcache.blocked::no_targets              0                       # number of cycles access was blocked
system.cpu0.dcache.avg_blocked_cycles::no_mshrs          nan                       # average number of cycles each access was blocked
system.cpu0.dcache.avg_blocked_cycles::no_targets          nan                       # average number of cycles each access was blocked
system.cpu0.dcache.writebacks::writebacks        40395                       # number of writebacks
system.cpu0.dcache.writebacks::total            40395                       # number of writebacks
system.cpu0.dcache.ReadReq_mshr_misses::switch_cpus0.data         7275                       # number of ReadReq MSHR misses
system.cpu0.dcache.ReadReq_mshr_misses::total         7275                       # number of ReadReq MSHR misses
system.cpu0.dcache.WriteReq_mshr_misses::switch_cpus0.data        40714                       # number of WriteReq MSHR misses
system.cpu0.dcache.WriteReq_mshr_misses::total        40714                       # number of WriteReq MSHR misses
system.cpu0.dcache.demand_mshr_misses::switch_cpus0.data        47989                       # number of demand (read+write) MSHR misses
system.cpu0.dcache.demand_mshr_misses::total        47989                       # number of demand (read+write) MSHR misses
system.cpu0.dcache.overall_mshr_misses::switch_cpus0.data        47989                       # number of overall MSHR misses
system.cpu0.dcache.overall_mshr_misses::total        47989                       # number of overall MSHR misses
system.cpu0.dcache.ReadReq_mshr_miss_latency::switch_cpus0.data    845135977                       # number of ReadReq MSHR miss cycles
system.cpu0.dcache.ReadReq_mshr_miss_latency::total    845135977                       # number of ReadReq MSHR miss cycles
system.cpu0.dcache.WriteReq_mshr_miss_latency::switch_cpus0.data   4566755067                       # number of WriteReq MSHR miss cycles
system.cpu0.dcache.WriteReq_mshr_miss_latency::total   4566755067                       # number of WriteReq MSHR miss cycles
system.cpu0.dcache.demand_mshr_miss_latency::switch_cpus0.data   5411891044                       # number of demand (read+write) MSHR miss cycles
system.cpu0.dcache.demand_mshr_miss_latency::total   5411891044                       # number of demand (read+write) MSHR miss cycles
system.cpu0.dcache.overall_mshr_miss_latency::switch_cpus0.data   5411891044                       # number of overall MSHR miss cycles
system.cpu0.dcache.overall_mshr_miss_latency::total   5411891044                       # number of overall MSHR miss cycles
system.cpu0.dcache.ReadReq_mshr_miss_rate::switch_cpus0.data     0.036785                       # mshr miss rate for ReadReq accesses
system.cpu0.dcache.ReadReq_mshr_miss_rate::total     0.036785                       # mshr miss rate for ReadReq accesses
system.cpu0.dcache.WriteReq_mshr_miss_rate::switch_cpus0.data     0.403777                       # mshr miss rate for WriteReq accesses
system.cpu0.dcache.WriteReq_mshr_miss_rate::total     0.403773                       # mshr miss rate for WriteReq accesses
system.cpu0.dcache.demand_mshr_miss_rate::switch_cpus0.data     0.160712                       # mshr miss rate for demand accesses
system.cpu0.dcache.demand_mshr_miss_rate::total     0.160712                       # mshr miss rate for demand accesses
system.cpu0.dcache.overall_mshr_miss_rate::switch_cpus0.data     0.160712                       # mshr miss rate for overall accesses
system.cpu0.dcache.overall_mshr_miss_rate::total     0.160712                       # mshr miss rate for overall accesses
system.cpu0.dcache.ReadReq_avg_mshr_miss_latency::switch_cpus0.data 116169.893746                       # average ReadReq mshr miss latency
system.cpu0.dcache.ReadReq_avg_mshr_miss_latency::total 116169.893746                       # average ReadReq mshr miss latency
system.cpu0.dcache.WriteReq_avg_mshr_miss_latency::switch_cpus0.data 112166.701061                       # average WriteReq mshr miss latency
system.cpu0.dcache.WriteReq_avg_mshr_miss_latency::total 112166.701061                       # average WriteReq mshr miss latency
system.cpu0.dcache.demand_avg_mshr_miss_latency::switch_cpus0.data 112773.574027                       # average overall mshr miss latency
system.cpu0.dcache.demand_avg_mshr_miss_latency::total 112773.574027                       # average overall mshr miss latency
system.cpu0.dcache.overall_avg_mshr_miss_latency::switch_cpus0.data 112773.574027                       # average overall mshr miss latency
system.cpu0.dcache.overall_avg_mshr_miss_latency::total 112773.574027                       # average overall mshr miss latency
system.cpu0.dtb_walker_cache.tags.pwrStateResidencyTicks::UNDEFINED 2543563488305                       # Cumulative time (in ticks) in various power states
system.cpu0.dtb_walker_cache.tags.replacements            0                       # number of replacements
system.cpu0.dtb_walker_cache.tags.tagsinuse            0                       # Cycle average of tags in use
system.cpu0.dtb_walker_cache.tags.total_refs            0                       # Total number of references to valid blocks.
system.cpu0.dtb_walker_cache.tags.sampled_refs            0                       # Sample count of references to valid blocks.
system.cpu0.dtb_walker_cache.tags.avg_refs          nan                       # Average number of references to valid blocks.
system.cpu0.dtb_walker_cache.tags.warmup_cycle            0                       # Cycle when the warmup percentage was hit.
system.cpu0.dtb_walker_cache.tags.tag_accesses            0                       # Number of tag accesses
system.cpu0.dtb_walker_cache.tags.data_accesses            0                       # Number of data accesses
system.cpu0.dtb_walker_cache.pwrStateResidencyTicks::UNDEFINED 2543563488305                       # Cumulative time (in ticks) in various power states
system.cpu0.dtb_walker_cache.blocked_cycles::no_mshrs            0                       # number of cycles access was blocked
system.cpu0.dtb_walker_cache.blocked_cycles::no_targets            0                       # number of cycles access was blocked
system.cpu0.dtb_walker_cache.blocked::no_mshrs            0                       # number of cycles access was blocked
system.cpu0.dtb_walker_cache.blocked::no_targets            0                       # number of cycles access was blocked
system.cpu0.dtb_walker_cache.avg_blocked_cycles::no_mshrs          nan                       # average number of cycles each access was blocked
system.cpu0.dtb_walker_cache.avg_blocked_cycles::no_targets          nan                       # average number of cycles each access was blocked
system.cpu0.icache.tags.pwrStateResidencyTicks::UNDEFINED 2543563488305                       # Cumulative time (in ticks) in various power states
system.cpu0.icache.tags.replacements                0                       # number of replacements
system.cpu0.icache.tags.tagsinuse           31.857042                       # Cycle average of tags in use
system.cpu0.icache.tags.total_refs                  0                       # Total number of references to valid blocks.
system.cpu0.icache.tags.sampled_refs                0                       # Sample count of references to valid blocks.
system.cpu0.icache.tags.avg_refs                  nan                       # Average number of references to valid blocks.
system.cpu0.icache.tags.warmup_cycle                0                       # Cycle when the warmup percentage was hit.
system.cpu0.icache.tags.occ_blocks::cpu0.inst     1.999999                       # Average occupied blocks per requestor
system.cpu0.icache.tags.occ_blocks::switch_cpus0.inst    29.857043                       # Average occupied blocks per requestor
system.cpu0.icache.tags.occ_percent::cpu0.inst     0.003906                       # Average percentage of cache occupancy
system.cpu0.icache.tags.occ_percent::switch_cpus0.inst     0.058315                       # Average percentage of cache occupancy
system.cpu0.icache.tags.occ_percent::total     0.062221                       # Average percentage of cache occupancy
system.cpu0.icache.tags.occ_task_id_blocks::1024           32                       # Occupied blocks per task id
system.cpu0.icache.tags.age_task_id_blocks_1024::3           32                       # Occupied blocks per task id
system.cpu0.icache.tags.occ_task_id_percent::1024     0.062500                       # Percentage of cache occupancy per task id
system.cpu0.icache.tags.tag_accesses         12274568                       # Number of tag accesses
system.cpu0.icache.tags.data_accesses        12274568                       # Number of data accesses
system.cpu0.icache.pwrStateResidencyTicks::UNDEFINED 2543563488305                       # Cumulative time (in ticks) in various power states
system.cpu0.icache.ReadReq_hits::cpu0.inst            9                       # number of ReadReq hits
system.cpu0.icache.ReadReq_hits::switch_cpus0.inst      1534276                       # number of ReadReq hits
system.cpu0.icache.ReadReq_hits::total        1534285                       # number of ReadReq hits
system.cpu0.icache.demand_hits::cpu0.inst            9                       # number of demand (read+write) hits
system.cpu0.icache.demand_hits::switch_cpus0.inst      1534276                       # number of demand (read+write) hits
system.cpu0.icache.demand_hits::total         1534285                       # number of demand (read+write) hits
system.cpu0.icache.overall_hits::cpu0.inst            9                       # number of overall hits
system.cpu0.icache.overall_hits::switch_cpus0.inst      1534276                       # number of overall hits
system.cpu0.icache.overall_hits::total        1534285                       # number of overall hits
system.cpu0.icache.ReadReq_misses::cpu0.inst            2                       # number of ReadReq misses
system.cpu0.icache.ReadReq_misses::switch_cpus0.inst           30                       # number of ReadReq misses
system.cpu0.icache.ReadReq_misses::total           32                       # number of ReadReq misses
system.cpu0.icache.demand_misses::cpu0.inst            2                       # number of demand (read+write) misses
system.cpu0.icache.demand_misses::switch_cpus0.inst           30                       # number of demand (read+write) misses
system.cpu0.icache.demand_misses::total            32                       # number of demand (read+write) misses
system.cpu0.icache.overall_misses::cpu0.inst            2                       # number of overall misses
system.cpu0.icache.overall_misses::switch_cpus0.inst           30                       # number of overall misses
system.cpu0.icache.overall_misses::total           32                       # number of overall misses
system.cpu0.icache.ReadReq_miss_latency::switch_cpus0.inst      3132913                       # number of ReadReq miss cycles
system.cpu0.icache.ReadReq_miss_latency::total      3132913                       # number of ReadReq miss cycles
system.cpu0.icache.demand_miss_latency::switch_cpus0.inst      3132913                       # number of demand (read+write) miss cycles
system.cpu0.icache.demand_miss_latency::total      3132913                       # number of demand (read+write) miss cycles
system.cpu0.icache.overall_miss_latency::switch_cpus0.inst      3132913                       # number of overall miss cycles
system.cpu0.icache.overall_miss_latency::total      3132913                       # number of overall miss cycles
system.cpu0.icache.ReadReq_accesses::cpu0.inst           11                       # number of ReadReq accesses(hits+misses)
system.cpu0.icache.ReadReq_accesses::switch_cpus0.inst      1534306                       # number of ReadReq accesses(hits+misses)
system.cpu0.icache.ReadReq_accesses::total      1534317                       # number of ReadReq accesses(hits+misses)
system.cpu0.icache.demand_accesses::cpu0.inst           11                       # number of demand (read+write) accesses
system.cpu0.icache.demand_accesses::switch_cpus0.inst      1534306                       # number of demand (read+write) accesses
system.cpu0.icache.demand_accesses::total      1534317                       # number of demand (read+write) accesses
system.cpu0.icache.overall_accesses::cpu0.inst           11                       # number of overall (read+write) accesses
system.cpu0.icache.overall_accesses::switch_cpus0.inst      1534306                       # number of overall (read+write) accesses
system.cpu0.icache.overall_accesses::total      1534317                       # number of overall (read+write) accesses
system.cpu0.icache.ReadReq_miss_rate::cpu0.inst     0.181818                       # miss rate for ReadReq accesses
system.cpu0.icache.ReadReq_miss_rate::switch_cpus0.inst     0.000020                       # miss rate for ReadReq accesses
system.cpu0.icache.ReadReq_miss_rate::total     0.000021                       # miss rate for ReadReq accesses
system.cpu0.icache.demand_miss_rate::cpu0.inst     0.181818                       # miss rate for demand accesses
system.cpu0.icache.demand_miss_rate::switch_cpus0.inst     0.000020                       # miss rate for demand accesses
system.cpu0.icache.demand_miss_rate::total     0.000021                       # miss rate for demand accesses
system.cpu0.icache.overall_miss_rate::cpu0.inst     0.181818                       # miss rate for overall accesses
system.cpu0.icache.overall_miss_rate::switch_cpus0.inst     0.000020                       # miss rate for overall accesses
system.cpu0.icache.overall_miss_rate::total     0.000021                       # miss rate for overall accesses
system.cpu0.icache.ReadReq_avg_miss_latency::switch_cpus0.inst 104430.433333                       # average ReadReq miss latency
system.cpu0.icache.ReadReq_avg_miss_latency::total 97903.531250                       # average ReadReq miss latency
system.cpu0.icache.demand_avg_miss_latency::switch_cpus0.inst 104430.433333                       # average overall miss latency
system.cpu0.icache.demand_avg_miss_latency::total 97903.531250                       # average overall miss latency
system.cpu0.icache.overall_avg_miss_latency::switch_cpus0.inst 104430.433333                       # average overall miss latency
system.cpu0.icache.overall_avg_miss_latency::total 97903.531250                       # average overall miss latency
system.cpu0.icache.blocked_cycles::no_mshrs            0                       # number of cycles access was blocked
system.cpu0.icache.blocked_cycles::no_targets            0                       # number of cycles access was blocked
system.cpu0.icache.blocked::no_mshrs                0                       # number of cycles access was blocked
system.cpu0.icache.blocked::no_targets              0                       # number of cycles access was blocked
system.cpu0.icache.avg_blocked_cycles::no_mshrs          nan                       # average number of cycles each access was blocked
system.cpu0.icache.avg_blocked_cycles::no_targets          nan                       # average number of cycles each access was blocked
system.cpu0.icache.ReadReq_mshr_misses::switch_cpus0.inst           30                       # number of ReadReq MSHR misses
system.cpu0.icache.ReadReq_mshr_misses::total           30                       # number of ReadReq MSHR misses
system.cpu0.icache.demand_mshr_misses::switch_cpus0.inst           30                       # number of demand (read+write) MSHR misses
system.cpu0.icache.demand_mshr_misses::total           30                       # number of demand (read+write) MSHR misses
system.cpu0.icache.overall_mshr_misses::switch_cpus0.inst           30                       # number of overall MSHR misses
system.cpu0.icache.overall_mshr_misses::total           30                       # number of overall MSHR misses
system.cpu0.icache.ReadReq_mshr_miss_latency::switch_cpus0.inst      3082933                       # number of ReadReq MSHR miss cycles
system.cpu0.icache.ReadReq_mshr_miss_latency::total      3082933                       # number of ReadReq MSHR miss cycles
system.cpu0.icache.demand_mshr_miss_latency::switch_cpus0.inst      3082933                       # number of demand (read+write) MSHR miss cycles
system.cpu0.icache.demand_mshr_miss_latency::total      3082933                       # number of demand (read+write) MSHR miss cycles
system.cpu0.icache.overall_mshr_miss_latency::switch_cpus0.inst      3082933                       # number of overall MSHR miss cycles
system.cpu0.icache.overall_mshr_miss_latency::total      3082933                       # number of overall MSHR miss cycles
system.cpu0.icache.ReadReq_mshr_miss_rate::switch_cpus0.inst     0.000020                       # mshr miss rate for ReadReq accesses
system.cpu0.icache.ReadReq_mshr_miss_rate::total     0.000020                       # mshr miss rate for ReadReq accesses
system.cpu0.icache.demand_mshr_miss_rate::switch_cpus0.inst     0.000020                       # mshr miss rate for demand accesses
system.cpu0.icache.demand_mshr_miss_rate::total     0.000020                       # mshr miss rate for demand accesses
system.cpu0.icache.overall_mshr_miss_rate::switch_cpus0.inst     0.000020                       # mshr miss rate for overall accesses
system.cpu0.icache.overall_mshr_miss_rate::total     0.000020                       # mshr miss rate for overall accesses
system.cpu0.icache.ReadReq_avg_mshr_miss_latency::switch_cpus0.inst 102764.433333                       # average ReadReq mshr miss latency
system.cpu0.icache.ReadReq_avg_mshr_miss_latency::total 102764.433333                       # average ReadReq mshr miss latency
system.cpu0.icache.demand_avg_mshr_miss_latency::switch_cpus0.inst 102764.433333                       # average overall mshr miss latency
system.cpu0.icache.demand_avg_mshr_miss_latency::total 102764.433333                       # average overall mshr miss latency
system.cpu0.icache.overall_avg_mshr_miss_latency::switch_cpus0.inst 102764.433333                       # average overall mshr miss latency
system.cpu0.icache.overall_avg_mshr_miss_latency::total 102764.433333                       # average overall mshr miss latency
system.cpu0.itb_walker_cache.tags.pwrStateResidencyTicks::UNDEFINED 2543563488305                       # Cumulative time (in ticks) in various power states
system.cpu0.itb_walker_cache.tags.replacements            0                       # number of replacements
system.cpu0.itb_walker_cache.tags.tagsinuse            0                       # Cycle average of tags in use
system.cpu0.itb_walker_cache.tags.total_refs            0                       # Total number of references to valid blocks.
system.cpu0.itb_walker_cache.tags.sampled_refs            0                       # Sample count of references to valid blocks.
system.cpu0.itb_walker_cache.tags.avg_refs          nan                       # Average number of references to valid blocks.
system.cpu0.itb_walker_cache.tags.warmup_cycle            0                       # Cycle when the warmup percentage was hit.
system.cpu0.itb_walker_cache.tags.tag_accesses            0                       # Number of tag accesses
system.cpu0.itb_walker_cache.tags.data_accesses            0                       # Number of data accesses
system.cpu0.itb_walker_cache.pwrStateResidencyTicks::UNDEFINED 2543563488305                       # Cumulative time (in ticks) in various power states
system.cpu0.itb_walker_cache.blocked_cycles::no_mshrs            0                       # number of cycles access was blocked
system.cpu0.itb_walker_cache.blocked_cycles::no_targets            0                       # number of cycles access was blocked
system.cpu0.itb_walker_cache.blocked::no_mshrs            0                       # number of cycles access was blocked
system.cpu0.itb_walker_cache.blocked::no_targets            0                       # number of cycles access was blocked
system.cpu0.itb_walker_cache.avg_blocked_cycles::no_mshrs          nan                       # average number of cycles each access was blocked
system.cpu0.itb_walker_cache.avg_blocked_cycles::no_targets          nan                       # average number of cycles each access was blocked
system.cpu1.dtb.walker.pwrStateResidencyTicks::UNDEFINED 2543563488305                       # Cumulative time (in ticks) in various power states
system.cpu1.apic_clk_domain.clock               13328                       # Clock period in ticks
system.cpu1.interrupts.pwrStateResidencyTicks::UNDEFINED 2543563488305                       # Cumulative time (in ticks) in various power states
system.cpu1.itb.walker.pwrStateResidencyTicks::UNDEFINED 2543563488305                       # Cumulative time (in ticks) in various power states
system.cpu1.workload.num_syscalls                   0                       # Number of system calls
system.cpu1.pwrStateResidencyTicks::ON     8468661305                       # Cumulative time (in ticks) in various power states
system.cpu1.numCycles                              12                       # number of cpu cycles simulated
system.cpu1.numWorkItemsStarted                     0                       # number of work items this cpu started
system.cpu1.numWorkItemsCompleted                   0                       # number of work items this cpu completed
[...]
system.switch_cpus1.idle_fraction                   0                       # Percentage of idle cycles
system.switch_cpus1.Branches                  1326742                       # Number of branches fetched
system.switch_cpus1.op_class::No_OpClass            1      0.00%      0.00% # Class of executed instruction
system.switch_cpus1.op_class::IntAlu         29998813     24.57%     24.57% # Class of executed instruction
system.switch_cpus1.op_class::IntMult           60000      0.05%     24.62% # Class of executed instruction
system.switch_cpus1.op_class::IntDiv                0      0.00%     24.62% # Class of executed instruction
system.switch_cpus1.op_class::FloatAdd       58399162     47.84%     72.46% # Class of executed instruction
system.switch_cpus1.op_class::FloatCmp              0      0.00%     72.46% # Class of executed instruction
system.switch_cpus1.op_class::FloatCvt              0      0.00%     72.46% # Class of executed instruction
system.switch_cpus1.op_class::FloatMult             0      0.00%     72.46% # Class of executed instruction
system.switch_cpus1.op_class::FloatMultAcc            0      0.00%     72.46% # Class of executed instruction
system.switch_cpus1.op_class::FloatDiv              0      0.00%     72.46% # Class of executed instruction
system.switch_cpus1.op_class::FloatMisc             0      0.00%     72.46% # Class of executed instruction
system.switch_cpus1.op_class::FloatSqrt             0      0.00%     72.46% # Class of executed instruction
system.switch_cpus1.op_class::SimdAdd               0      0.00%     72.46% # Class of executed instruction
system.switch_cpus1.op_class::SimdAddAcc            0      0.00%     72.46% # Class of executed instruction
system.switch_cpus1.op_class::SimdAlu               0      0.00%     72.46% # Class of executed instruction
system.switch_cpus1.op_class::SimdCmp               0      0.00%     72.46% # Class of executed instruction
system.switch_cpus1.op_class::SimdCvt               0      0.00%     72.46% # Class of executed instruction
system.switch_cpus1.op_class::SimdMisc              0      0.00%     72.46% # Class of executed instruction
system.switch_cpus1.op_class::SimdMult              0      0.00%     72.46% # Class of executed instruction
system.switch_cpus1.op_class::SimdMultAcc            0      0.00%     72.46% # Class of executed instruction
system.switch_cpus1.op_class::SimdShift             0      0.00%     72.46% # Class of executed instruction
system.switch_cpus1.op_class::SimdShiftAcc            0      0.00%     72.46% # Class of executed instruction
system.switch_cpus1.op_class::SimdSqrt              0      0.00%     72.46% # Class of executed instruction
system.switch_cpus1.op_class::SimdFloatAdd            0      0.00%     72.46% # Class of executed instruction
system.switch_cpus1.op_class::SimdFloatAlu            0      0.00%     72.46% # Class of executed instruction
system.switch_cpus1.op_class::SimdFloatCmp            0      0.00%     72.46% # Class of executed instruction
system.switch_cpus1.op_class::SimdFloatCvt            0      0.00%     72.46% # Class of executed instruction
system.switch_cpus1.op_class::SimdFloatDiv            0      0.00%     72.46% # Class of executed instruction
system.switch_cpus1.op_class::SimdFloatMisc            0      0.00%     72.46% # Class of executed instruction
system.switch_cpus1.op_class::SimdFloatMult            0      0.00%     72.46% # Class of executed instruction
system.switch_cpus1.op_class::SimdFloatMultAcc            0      0.00%     72.46% # Class of executed instruction
system.switch_cpus1.op_class::SimdFloatSqrt            0      0.00%     72.46% # Class of executed instruction
system.switch_cpus1.op_class::MemRead          400490      0.33%     72.79% # Class of executed instruction
system.switch_cpus1.op_class::MemWrite              6      0.00%     72.79% # Class of executed instruction
system.switch_cpus1.op_class::FloatMemRead     21180515     17.35%     90.14% # Class of executed instruction
system.switch_cpus1.op_class::FloatMemWrite     12035270      9.86%    100.00% # Class of executed instruction
system.switch_cpus1.op_class::IprAccess             0      0.00%    100.00% # Class of executed instruction
system.switch_cpus1.op_class::InstPrefetch            0      0.00%    100.00% # Class of executed instruction
system.switch_cpus1.op_class::total         122074257                       # Class of executed instruction
system.switch_cpus2.dtb.walker.pwrStateResidencyTicks::UNDEFINED 1088736044648                       # Cumulative time (in ticks) in various power states
system.switch_cpus2.itb.walker.pwrStateResidencyTicks::UNDEFINED 1088736044648                       # Cumulative time (in ticks) in various power states
system.switch_cpus2.pwrStateResidencyTicks::ON 1088736044648                       # Cumulative time (in ticks) in various power states
system.switch_cpus2.numCycles              1307006087                       # number of cpu cycles simulated
system.switch_cpus2.numWorkItemsStarted             0                       # number of work items this cpu started
system.switch_cpus2.numWorkItemsCompleted            0                       # number of work items this cpu completed
system.switch_cpus2.committedInsts          100008297                       # Number of instructions committed
system.switch_cpus2.committedOps            122085029                       # Number of ops (including micro ops) committed
system.switch_cpus2.num_int_alu_accesses     45016595                       # Number of integer alu accesses
system.switch_cpus2.num_fp_alu_accesses     110306867                       # Number of float alu accesses
system.switch_cpus2.num_func_calls                  6                       # number of times a function call or return occured
system.switch_cpus2.num_conditional_control_insts      1073925                       # number of instructions that are conditional controls
system.switch_cpus2.num_int_insts            45016595                       # number of integer instructions
system.switch_cpus2.num_fp_insts            110306867                       # number of float instructions
system.switch_cpus2.num_int_register_reads    114852370                       # number of times the integer registers were read
system.switch_cpus2.num_int_register_writes     10511309                       # number of times the integer registers were written
system.switch_cpus2.num_fp_register_reads    223486046                       # number of times the floating registers were read
system.switch_cpus2.num_fp_register_writes     98270696                       # number of times the floating registers were written
system.switch_cpus2.num_cc_register_reads      6093045                       # number of times the CC registers were read
system.switch_cpus2.num_cc_register_writes      4950886                       # number of times the CC registers were written
system.switch_cpus2.num_mem_refs             33618957                       # number of memory refs
system.switch_cpus2.num_load_insts           21582780                       # Number of load instructions
system.switch_cpus2.num_store_insts          12036177                       # Number of store instructions
system.switch_cpus2.num_idle_cycles                 0                       # Number of idle cycles
system.switch_cpus2.num_busy_cycles        1307006087                       # Number of busy cycles
system.switch_cpus2.not_idle_fraction               1                       # Percentage of non-idle cycles
system.switch_cpus2.idle_fraction                   0                       # Percentage of idle cycles
system.switch_cpus2.Branches                  1326845                       # Number of branches fetched
system.switch_cpus2.op_class::No_OpClass            1      0.00%      0.00% # Class of executed instruction
system.switch_cpus2.op_class::IntAlu         30001413     24.57%     24.57% # Class of executed instruction
system.switch_cpus2.op_class::IntMult           60000      0.05%     24.62% # Class of executed instruction
system.switch_cpus2.op_class::IntDiv                0      0.00%     24.62% # Class of executed instruction
system.switch_cpus2.op_class::FloatAdd       58404658     47.84%     72.46% # Class of executed instruction
system.switch_cpus2.op_class::FloatCmp              0      0.00%     72.46% # Class of executed instruction
system.switch_cpus2.op_class::FloatCvt              0      0.00%     72.46% # Class of executed instruction
system.switch_cpus2.op_class::FloatMult             0      0.00%     72.46% # Class of executed instruction
system.switch_cpus2.op_class::FloatMultAcc            0      0.00%     72.46% # Class of executed instruction
system.switch_cpus2.op_class::FloatDiv              0      0.00%     72.46% # Class of executed instruction
system.switch_cpus2.op_class::FloatMisc             0      0.00%     72.46% # Class of executed instruction
system.switch_cpus2.op_class::FloatSqrt             0      0.00%     72.46% # Class of executed instruction
system.switch_cpus2.op_class::SimdAdd               0      0.00%     72.46% # Class of executed instruction
system.switch_cpus2.op_class::SimdAddAcc            0      0.00%     72.46% # Class of executed instruction
system.switch_cpus2.op_class::SimdAlu               0      0.00%     72.46% # Class of executed instruction
system.switch_cpus2.op_class::SimdCmp               0      0.00%     72.46% # Class of executed instruction
system.switch_cpus2.op_class::SimdCvt               0      0.00%     72.46% # Class of executed instruction
system.switch_cpus2.op_class::SimdMisc              0      0.00%     72.46% # Class of executed instruction
system.switch_cpus2.op_class::SimdMult              0      0.00%     72.46% # Class of executed instruction
system.switch_cpus2.op_class::SimdMultAcc            0      0.00%     72.46% # Class of executed instruction
system.switch_cpus2.op_class::SimdShift             0      0.00%     72.46% # Class of executed instruction
system.switch_cpus2.op_class::SimdShiftAcc            0      0.00%     72.46% # Class of executed instruction
system.switch_cpus2.op_class::SimdSqrt              0      0.00%     72.46% # Class of executed instruction
system.switch_cpus2.op_class::SimdFloatAdd            0      0.00%     72.46% # Class of executed instruction
system.switch_cpus2.op_class::SimdFloatAlu            0      0.00%     72.46% # Class of executed instruction
system.switch_cpus2.op_class::SimdFloatCmp            0      0.00%     72.46% # Class of executed instruction
system.switch_cpus2.op_class::SimdFloatCvt            0      0.00%     72.46% # Class of executed instruction
system.switch_cpus2.op_class::SimdFloatDiv            0      0.00%     72.46% # Class of executed instruction
system.switch_cpus2.op_class::SimdFloatMisc            0      0.00%     72.46% # Class of executed instruction
system.switch_cpus2.op_class::SimdFloatMult            0      0.00%     72.46% # Class of executed instruction
system.switch_cpus2.op_class::SimdFloatMultAcc            0      0.00%     72.46% # Class of executed instruction
system.switch_cpus2.op_class::SimdFloatSqrt            0      0.00%     72.46% # Class of executed instruction
system.switch_cpus2.op_class::MemRead          400516      0.33%     72.79% # Class of executed instruction
system.switch_cpus2.op_class::MemWrite              6      0.00%     72.79% # Class of executed instruction
system.switch_cpus2.op_class::FloatMemRead     21182264     17.35%     90.14% # Class of executed instruction
system.switch_cpus2.op_class::FloatMemWrite     12036171      9.86%    100.00% # Class of executed instruction
system.switch_cpus2.op_class::IprAccess             0      0.00%    100.00% # Class of executed instruction
system.switch_cpus2.op_class::InstPrefetch            0      0.00%    100.00% # Class of executed instruction
system.switch_cpus2.op_class::total         122085029                       # Class of executed instruction
system.tol2bus.snoop_filter.tot_requests     40653781                       # Total number of requests made to the snoop filter.
system.tol2bus.snoop_filter.hit_single_requests     20326820                       # Number of requests hitting in the snoop filter with a single holder of the requested data.
system.tol2bus.snoop_filter.hit_multi_requests            0                       # Number of requests hitting in the snoop filter with multiple (>1) holders of the requested data.
system.tol2bus.snoop_filter.tot_snoops        1262927                       # Total number of snoops made to the snoop filter.
system.tol2bus.snoop_filter.hit_single_snoops      1262927                       # Number of snoops hitting in the snoop filter with a single holder of the requested data.
system.tol2bus.snoop_filter.hit_multi_snoops            0                       # Number of snoops hitting in the snoop filter with multiple (>1) holders of the requested data.
system.tol2bus.pwrStateResidencyTicks::UNDEFINED 1088736044648                       # Cumulative time (in ticks) in various power states
system.tol2bus.trans_dist::ReadResp           3330622                       # Transaction distribution
system.tol2bus.trans_dist::WritebackDirty     32503439                       # Transaction distribution
system.tol2bus.trans_dist::CleanEvict         7887685                       # Transaction distribution
system.tol2bus.trans_dist::ReadExReq         16996338                       # Transaction distribution
system.tol2bus.trans_dist::ReadExResp        16996339                       # Transaction distribution
system.tol2bus.trans_dist::ReadCleanReq           141                       # Transaction distribution
system.tol2bus.trans_dist::ReadSharedReq      3330482                       # Transaction distribution
system.tol2bus.pkt_count_system.cpu0.icache.mem_side::system.l2.cpu_side           94                       # Packet count per connected master and slave (bytes)
system.tol2bus.pkt_count_system.cpu0.dcache.mem_side::system.l2.cpu_side     20326392                       # Packet count per connected master and slave (bytes)
system.tol2bus.pkt_count_system.cpu1.icache.mem_side::system.l2.cpu_side           94                       # Packet count per connected master and slave (bytes)
system.tol2bus.pkt_count_system.cpu1.dcache.mem_side::system.l2.cpu_side     20326387                       # Packet count per connected master and slave (bytes)
system.tol2bus.pkt_count_system.cpu2.icache.mem_side::system.l2.cpu_side           94                       # Packet count per connected master and slave (bytes)
system.tol2bus.pkt_count_system.cpu2.dcache.mem_side::system.l2.cpu_side     20327681                       # Packet count per connected master and slave (bytes)
system.tol2bus.pkt_count::total              60980742                       # Packet count per connected master and slave (bytes)
system.tol2bus.pkt_size_system.cpu0.icache.mem_side::system.l2.cpu_side         3008                       # Cumulative packet size per connected master and slave (bytes)
system.tol2bus.pkt_size_system.cpu0.dcache.mem_side::system.l2.cpu_side    796210816                       # Cumulative packet size per connected master and slave (bytes)
system.tol2bus.pkt_size_system.cpu1.icache.mem_side::system.l2.cpu_side         3008                       # Cumulative packet size per connected master and slave (bytes)
system.tol2bus.pkt_size_system.cpu1.dcache.mem_side::system.l2.cpu_side    796210496                       # Cumulative packet size per connected master and slave (bytes)
system.tol2bus.pkt_size_system.cpu2.icache.mem_side::system.l2.cpu_side         3008                       # Cumulative packet size per connected master and slave (bytes)
system.tol2bus.pkt_size_system.cpu2.dcache.mem_side::system.l2.cpu_side    796261568                       # Cumulative packet size per connected master and slave (bytes)
system.tol2bus.pkt_size::total             2388691904                       # Cumulative packet size per connected master and slave (bytes)
system.tol2bus.snoops                        20064304                       # Total snoops (count)
system.tol2bus.snoopTraffic                 992453696                       # Total snoop traffic (bytes)
system.tol2bus.snoop_fanout::samples         40391265                       # Request fanout histogram
system.tol2bus.snoop_fanout::mean            0.031267                       # Request fanout histogram
system.tol2bus.snoop_fanout::stdev           0.174039                       # Request fanout histogram
system.tol2bus.snoop_fanout::underflows             0      0.00%      0.00% # Request fanout histogram
system.tol2bus.snoop_fanout::0               39128338     96.87%     96.87% # Request fanout histogram
system.tol2bus.snoop_fanout::1                1262927      3.13%    100.00% # Request fanout histogram
system.tol2bus.snoop_fanout::2                      0      0.00%    100.00% # Request fanout histogram
system.tol2bus.snoop_fanout::3                      0      0.00%    100.00% # Request fanout histogram
system.tol2bus.snoop_fanout::4                      0      0.00%    100.00% # Request fanout histogram
system.tol2bus.snoop_fanout::5                      0      0.00%    100.00% # Request fanout histogram
system.tol2bus.snoop_fanout::6                      0      0.00%    100.00% # Request fanout histogram
system.tol2bus.snoop_fanout::7                      0      0.00%    100.00% # Request fanout histogram
system.tol2bus.snoop_fanout::8                      0      0.00%    100.00% # Request fanout histogram
system.tol2bus.snoop_fanout::9                      0      0.00%    100.00% # Request fanout histogram
system.tol2bus.snoop_fanout::10                     0      0.00%    100.00% # Request fanout histogram
system.tol2bus.snoop_fanout::11                     0      0.00%    100.00% # Request fanout histogram
system.tol2bus.snoop_fanout::12                     0      0.00%    100.00% # Request fanout histogram
system.tol2bus.snoop_fanout::overflows              0      0.00%    100.00% # Request fanout histogram
system.tol2bus.snoop_fanout::min_value              0                       # Request fanout histogram
system.tol2bus.snoop_fanout::max_value              1                       # Request fanout histogram
system.tol2bus.snoop_fanout::total           40391265                       # Request fanout histogram
system.tol2bus.reqLayer0.occupancy        62180518673                       # Layer occupancy (ticks)
system.tol2bus.reqLayer0.utilization              5.7                       # Layer utilization (%)
system.tol2bus.respLayer0.occupancy            117453                       # Layer occupancy (ticks)
system.tol2bus.respLayer0.utilization             0.0                       # Layer utilization (%)
system.tol2bus.respLayer1.occupancy       16936249208                       # Layer occupancy (ticks)
system.tol2bus.respLayer1.utilization             1.6                       # Layer utilization (%)
system.tol2bus.respLayer4.occupancy            117453                       # Layer occupancy (ticks)
system.tol2bus.respLayer4.utilization             0.0                       # Layer utilization (%)
system.tol2bus.respLayer5.occupancy       16935773298                       # Layer occupancy (ticks)
system.tol2bus.respLayer5.utilization             1.6                       # Layer utilization (%)
system.tol2bus.respLayer8.occupancy            117453                       # Layer occupancy (ticks)
system.tol2bus.respLayer8.utilization             0.0                       # Layer utilization (%)
system.tol2bus.respLayer9.occupancy       16936963522                       # Layer occupancy (ticks)
system.tol2bus.respLayer9.utilization             1.6                       # Layer utilization (%)

---------- End Simulation Statistics   ----------
